New "LoadShape.default" npts=24 interval=1 mult=[ 0.677 0.6256 0.6087 0.5833 0.58028 0.6025 0.657 0.7477 0.832 0.88 0.94 0.989 0.985 0.98 0.9898 0.999 1 0.958 0.936 0.913 0.876 0.876 0.828 0.756]
New "LoadShape.load1" npts=37438 minterval=1 Pmult=[ 0.0680908 0.124833 0.121495 0.118158 0.118825 0.120828 0.121495 0.120828 0.119493 0.120828 0.121495 0.120828 0.12016 0.12016 0.0881175 0.162884 0.160214 0.160214 0.158879 0.0674232 0.0674232 0.0674232 0.0674232 0.0667557 0.0667557 0.0654206 0.0554072 0.0554072 0.0547397 0.0847797 0.116822 0.112817 0.110147 0.112817 0.114152 0.113485 0.11215 0.112817 0.113485 0.113485 0.112817 0.114152 0.0941255 0.0547397 0.0667557 0.0680908 0.0674232 0.0674232 0.0700935 0.070761 0.0694259 0.0861148 0.0881175 0.0947931 0.0947931 0.127503 0.186248 0.175567 0.1749 0.228972 0.141522 0.137517 0.137517 0.139519 0.139519 0.138852 0.138184 0.138184 0.138852 0.138852 0.134179 0.123498 0.0747664 0.0747664 0.0747664 0.0847797 0.0874499 0.0867824 0.0867824 0.0867824 0.0867824 0.0867824 0.0867824 0.0861148 0.0861148 0.0861148 0.0861148 0.0861148 0.0854473 0.123498 0.133511 0.130174 0.129506 0.130841 0.132176 0.131509 0.130841 0.131509 0.132176 0.132176 0.123498 0.0740988 0.138184 0.166889 0.166889 0.166222 0.0881175 0.0761015 0.0874499 0.0861148 0.0861148 0.0861148 0.0861148 0.0854473 0.0787717 0.0787717 0.0787717 0.0787717 0.0787717 0.129506 0.138184 0.114152 0.106142 0.108812 0.109479 0.108812 0.11482 0.11482 0.115487 0.115487 0.0761015 0.0567423 0.0567423 0.0567423 0.0567423 0.0567423 0.0567423 0.0560748 0.0560748 0.058745 0.0700935 0.0687583 0.0687583 0.0687583 0.0687583 0.0687583 0.0687583 0.064753 0.0627503 0.120828 0.122163 0.124166 0.126836 0.119493 0.11749 0.115487 0.115487 0.116155 0.116822 0.116155 0.0794393 0.0600801 0.058745 0.058745 0.058745 0.058745 0.058745 0.058745 0.058745 0.058745 0.058745 0.0614152 0.0720961 0.070761 0.070761 0.070761 0.070761 0.070761 0.070761 0.123498 0.130174 0.126836 0.125501 0.128171 0.128838 0.12283 0.116155 0.115487 0.116155 0.116822 0.0667557 0.058745 0.058745 0.058745 0.058745 0.058745 0.122163 0.151535 0.151535 0.150868 0.0727637 0.058745 0.058745 0.0747664 0.0914553 0.0961282 0.0947931 0.0947931 0.0947931 0.142857 0.153538 0.142857 0.14219 0.144192 0.14486 0.143525 0.142857 0.143525 0.142857 0.130841 0.0814419 0.0734312 0.0734312 0.0734312 0.0714286 0.0680908 0.0680908 0.0680908 0.0680908 0.0680908 0.0680908 0.0674232 0.0674232 0.0674232 0.0674232 0.0674232 0.0674232 0.0674232 0.0761015 0.0807744 0.133511 0.138852 0.135514 0.134846 0.136849 0.137517 0.136849 0.138852 0.145527 0.144192 0.143525 0.0934579 0.0867824 0.0867824 0.0861148 0.0740988 0.0740988 0.0740988 0.0740988 0.0740988 0.0740988 0.0740988 0.0740988 0.0740988 0.0740988 0.0740988 0.0740988 0.0740988 0.0740988 0.0740988 0.0740988 0.0694259 0.0614152 0.119493 0.11749 0.118158 0.128171 0.129506 0.129506 0.127503 0.126836 0.136849 0.158211 0.200267 0.162884 0.14219 0.14219 0.14219 0.14219 0.132176 0.130174 0.129506 0.0640854 0.0640854 0.0774366 0.0640854 0.0640854 0.0794393 0.0881175 0.088785 0.101469 0.088785 0.0674232 0.0801068 0.0667557 0.0674232 0.134846 0.122163 0.123498 0.145527 0.133511 0.133511 0.145527 0.132844 0.133511 0.14219 0.137517 0.0761015 0.0821095 0.0934579 0.082777 0.0834446 0.0974633 0.0854473 0.0814419 0.088785 0.0754339 0.0754339 0.0881175 0.0747664 0.0747664 0.0881175 0.0747664 0.0747664 0.0881175 0.0747664 0.0747664 0.0874499 0.0747664 0.0747664 0.0921228 0.135514 0.133511 0.154206 0.148865 0.170227 0.183578 0.170227 0.168224 0.224299 0.194259 0.197597 0.157543 0.140187 0.160214 0.162216 0.162884 0.158879 0.29239 0.303071 0.28972 0.29239 0.303071 0.309079 0.186916 0.201602 0.184246 0.172897 0.182243 0.165554 0.187583 0.228972 0.20227 0.218291 0.222964 0.220961 0.208945 0.290387 0.31976 0.26502 0.273698 0.20494 0.220294 0.243658 0.278371 0.218291 0.212951 0.227637 0.213618 0.212951 0.225634 0.212283 0.369159 0.368491 0.198264 0.327103 0.200267 0.333111 0.166889 0.301068 0.150868 0.296395 0.165554 0.283712 0.186916 0.255674 0.201602 0.244326 0.198264 0.248999 0.192256 0.212283 0.137517 0.132844 0.170895 0.361816 0.23498 0.173565 0.20227 0.170227 0.285047 0.317757 0.1749 0.166222 0.203605 0.209613 0.20227 0.208945 0.184246 0.251001 0.293057 0.279706 0.279706 0.22964 0.198932 0.191589 0.157543 0.155541 0.150868 0.152203 0.206275 0.214286 0.311081 0.32243 0.306409 0.20761 0.220961 0.219626 0.224299 0.239653 0.228304 0.232977 0.251001 0.23498 0.222964 0.236315 0.222964 0.219626 0.230307 0.217623 0.219626 0.23498 0.221629 0.221629 0.234312 0.219626 0.20227 0.204272 0.206943 0.204272 0.200935 0.230975 0.242991 0.247664 0.255007 0.23765 0.304406 0.348465 0.335781 0.333778 0.256342 0.241656 0.183578 0.179573 0.170227 0.163551 0.1749 0.163551 0.182911 0.188251 0.184913 0.179573 0.181575 0.192256 0.17757 0.178905 0.187583 0.17223 0.169559 0.180908 0.176903 0.174232 0.186916 0.175567 0.178238 0.189586 0.153538 0.148865 0.164219 0.0981308 0.106142 0.166222 0.150868 0.136849 0.140187 0.222296 0.239653 0.24032 0.29506 0.224299 0.212283 0.244993 0.206943 0.218291 0.193591 0.186916 0.178905 0.178238 0.160214 0.121495 0.121495 0.110814 0.129506 0.109479 0.102804 0.100134 0.104139 0.102804 0.121495 0.299065 0.331108 0.196262 0.28972 0.228304 0.255674 0.26502 0.27036 0.333778 0.249666 0.353805 0.221629 0.343792 0.175567 0.286382 0.181575 0.221629 0.288385 0.26502 0.286382 0.224967 0.269693 0.105474 0.231642 0.0821095 0.212283 0.112817 0.180908 0.148198 0.146195 0.194259 0.176235 0.287717 0.154873 0.300401 0.173565 0.271696 0.198932 0.231642 0.173565 0.154873 0.197597 0.116822 0.211615 0.0794393 0.218959 0.0867824 0.218959 0.181575 0.211615 0.234312 0.206943 0.271696 0.1749 0.366489 0.247664 0.395861 0.273031 0.255674 0.160214 0.160881 0.159546 0.159546 0.171562 0.142857 0.114152 0.11482 0.11215 0.0921228 0.0480641 0.0473965 0.0473965 0.0473965 0.0473965 0.046729 0.0607477 0.0714286 0.070761 0.070761 0.070761 0.070761 0.070761 0.070761 0.070761 0.070761 0.0974633 0.130841 0.130841 0.173565 0.158211 0.101469 0.101469 0.101469 0.106142 0.0907877 0.0520694 0.0520694 0.0507343 0.0460614 0.0614152 0.0600801 0.0594126 0.0594126 0.058745 0.0594126 0.0720961 0.0781041 0.0761015 0.0754339 0.0754339 0.0761015 0.0761015 0.0761015 0.106809 0.137517 0.136182 0.226302 0.228304 0.228972 0.142857 0.134179 0.134846 0.134179 0.0894526 0.0754339 0.0754339 0.110147 0.134179 0.138852 0.138852 0.140187 0.146195 0.106142 0.0874499 0.0814419 0.0761015 0.0734312 0.0734312 0.0734312 0.0727637 0.0727637 0.070761 0.0614152 0.0600801 0.0801068 0.181575 0.182243 0.182243 0.181575 0.100801 0.0881175 0.0841121 0.0821095 0.0821095 0.0821095 0.0821095 0.0821095 0.0821095 0.0821095 0.0834446 0.0941255 0.0894526 0.0881175 0.0901202 0.0874499 0.0754339 0.0814419 0.0834446 0.0841121 0.0834446 0.0841121 0.146195 0.181575 0.181575 0.176235 0.134846 0.0921228 0.0947931 0.0961282 0.088785 0.0854473 0.0814419 0.0740988 0.0740988 0.0781041 0.0761015 0.0747664 0.0740988 0.0740988 0.0740988 0.0834446 0.0987984 0.140187 0.141522 0.137517 0.136849 0.173565 0.231642 0.23498 0.254339 0.308411 0.223632 0.224299 0.193591 0.174232 0.174232 0.172897 0.115487 0.11482 0.162216 0.166889 0.137517 0.136182 0.136849 0.124166 0.0961282 0.0927904 0.0761015 0.0740988 0.0787717 0.0514019 0.120828 0.172897 0.190921 0.188919 0.180908 0.0754339 0.0440587 0.0440587 0.052737 0.0594126 0.052737 0.0480641 0.0567423 0.0547397 0.0487316 0.0567423 0.0514019 0.0534045 0.0660881 0.064753 0.0600801 0.0600801 0.0607477 0.0594126 0.0594126 0.127503 0.17223 0.196929 0.246328 0.242323 0.186248 0.144192 0.14219 0.133511 0.131509 0.168892 0.194927 0.198264 0.197597 0.198264 0.198932 0.138184 0.107477 0.0787717 0.0981308 0.273698 0.238318 0.17223 0.186916 0.211615 0.245661 0.323097 0.204272 0.339786 0.236315 0.220294 0.155541 0.208945 0.178905 0.167557 0.208945 0.140854 0.241656 0.114152 0.244993 0.103471 0.244326 0.139519 0.206275 0.167557 0.290387 0.300401 0.281041 0.310414 0.340454 0.435915 0.302403 0.38518 0.263017 0.297063 0.153538 0.156876 0.146862 0.31976 0.188919 0.276368 0.0941255 0.189586 0.0714286 0.0801068 0.0867824 0.0854473 0.220961 0.184913 0.134846 0.0747664 0.0781041 0.0787717 0.149533 0.178905 0.17223 0.175567 0.178238 0.113485 0.0814419 0.126168 0.198932 0.194259 0.187583 0.188919 0.178905 0.11482 0.115487 0.116822 0.114152 0.110814 0.110147 0.112817 0.109479 0.115487 0.120828 0.11482 0.115487 0.120828 0.212951 0.210948 0.157543 0.164887 0.163551 0.0961282 0.0674232 0.0674232 0.0667557 0.0667557 0.0667557 0.0660881 0.0660881 0.0667557 0.0507343 0.0507343 0.0507343 0.0560748 0.0907877 0.12016 0.116155 0.11749 0.129506 0.222296 0.221629 0.220961 0.220961 0.212283 0.12283 0.12283 0.123498 0.123498 0.130841 0.130841 0.131509 0.130841 0.130841 0.130841 0.134179 0.150868 0.154206 0.192256 0.220961 0.259012 0.400534 0.544059 0.44526 0.392523 0.379172 0.361148 0.214953 0.305073 0.154206 0.291055 0.158211 0.256342 0.242323 0.253672 0.260347 0.22964 0.301068 0.271028 0.378505 0.242323 0.395861 0.266355 0.5 0.400534 0.491989 0.446595 0.447931 0.389853 0.383178 0.431909 0.372497 0.456609 0.348465 0.447931 0.248999 0.410547 0.289052 0.373832 0.310414 0.366489 0.323097 0.341121 0.451268 0.386515 0.446595 0.40988 0.520694 0.331108 0.413885 0.359146 0.461949 0.339119 0.339119 0.329105 0.335781 0.329773 0.254339 0.257009 0.251669 0.248331 0.225634 0.238985 0.334446 0.410547 0.444593 0.456609 0.478638 0.453939 0.427904 0.426569 0.416555 0.367156 0.285714 0.28972 0.3251 0.335781 0.32243 0.528705 0.500668 0.437917 0.384513 0.41255 0.315754 0.403872 0.549399 0.399866 0.38518 0.528037 0.302403 0.247664 0.375167 0.385848 0.358478 0.309079 0.421228 0.361148 0.317089 0.312417 0.395194 0.291055 0.313084 0.402537 0.420561 0.367156 0.301736 0.447931 0.359146 0.353805 0.252336 0.343792 0.186916 0.201602 0.238318 0.174232 0.166222 0.200267 0.383178 0.208945 0.273031 0.325768 0.425901 0.350467 0.351135 0.490654 0.450601 0.381842 0.276368 0.451268 0.303738 0.243658 0.231642 0.234312 0.243658 0.307744 0.286382 0.255674 0.216288 0.186248 0.253004 0.491322 0.402537 0.384513 0.376502 0.504673 0.388518 0.424566 0.287717 0.428571 0.310414 0.399199 0.331776 0.35247 0.366489 0.327103 0.403204 0.297063 0.422563 0.27036 0.489319 0.395194 0.488652 0.421228 0.459279 0.449266 0.341789 0.383845 0.295728 0.411883 0.206943 0.35247 0.249666 0.327103 0.206943 0.212283 0.211615 0.214286 0.266355 0.347797 0.378505 0.381175 0.381175 0.37717 0.372497 0.278371 0.278371 0.266355 0.266355 0.266355 0.266355 0.266355 0.265688 0.261015 0.250334 0.250334 0.250334 0.250334 0.287717 0.347797 0.348465 0.339786 0.281041 0.281709 0.193591 0.186916 0.186248 0.184913 0.184246 0.185581 0.23765 0.249666 0.250334 0.249666 0.249666 0.251669 0.257009 0.315087 0.294393 0.293725 0.29239 0.287717 0.251669 0.186916 0.182243 0.179573 0.18024 0.178905 0.181575 0.179573 0.168224 0.168224 0.168892 0.175567 0.176235 0.174232 0.264352 0.26502 0.269025 0.265688 0.261682 0.190921 0.170227 0.173565 0.179573 0.176903 0.170895 0.179573 0.179573 0.15287 0.107477 0.102804 0.103471 0.0987984 0.110147 0.178238 0.202937 0.201602 0.202937 0.204272 0.186248 0.113485 0.109479 0.116155 0.173565 0.174232 0.166222 0.160214 0.164219 0.158211 0.154873 0.154873 0.154873 0.156208 0.157543 0.159546 0.161549 0.167557 0.165554 0.162884 0.165554 0.171562 0.176235 0.172897 0.176903 0.176903 0.180908 0.190254 0.188919 0.189586 0.198264 0.208945 0.206275 0.206275 0.20761 0.213618 0.212951 0.212951 0.212951 0.21028 0.130841 0.121495 0.121495 0.120828 0.120828 0.12016 0.122163 0.122163 0.122163 0.122163 0.122163 0.122163 0.122163 0.121495 0.156208 0.192924 0.186916 0.184913 0.186916 0.194259 0.198264 0.196929 0.196929 0.197597 0.293057 0.375834 0.273698 0.337784 0.226969 0.362483 0.208278 0.350467 0.226969 0.318425 0.233645 0.286382 0.241656 0.216956 0.268358 0.162884 0.26769 0.159546 0.276368 0.138184 0.246328 0.176903 0.208278 0.213618 0.171562 0.249666 0.139519 0.29506 0.185581 0.339786 0.218291 0.307076 0.251669 0.273031 0.269693 0.214286 0.301736 0.178905 0.315754 0.181575 0.299733 0.21028 0.268358 0.228972 0.226302 0.255674 0.141522 0.213618 0.111482 0.099466 0.099466 0.100134 0.150868 0.279039 0.11215 0.100134 0.100134 0.099466 0.099466 0.099466 0.099466 0.159546 0.17223 0.168224 0.168892 0.170895 0.171562 0.170895 0.170227 0.170895 0.154873 0.148198 0.148198 0.14753 0.139519 0.151535 0.1749 0.169559 0.162884 0.162884 0.162216 0.162216 0.162216 0.162216 0.150868 0.134846 0.134846 0.134846 0.134846 0.138852 0.138852 0.137517 0.136849 0.136849 0.137517 0.138184 0.140187 0.152203 0.150868 0.150868 0.151535 0.150868 0.150868 0.150868 0.151535 0.0954606 0.0921228 0.0921228 0.0921228 0.0921228 0.0921228 0.0921228 0.0927904 0.0987984 0.102804 0.0987984 0.106142 0.108812 0.11482 0.170227 0.168224 0.164219 0.164887 0.271028 0.370494 0.277704 0.440587 0.302403 0.428571 0.281041 0.295728 0.186248 0.182243 0.173565 0.157543 0.201602 0.285047 0.140187 0.159546 0.107477 0.107477 0.107477 0.107477 0.199599 0.27036 0.106809 0.106142 0.106142 0.105474 0.100801 0.100801 0.14753 0.161549 0.157543 0.156876 0.158879 0.159546 0.158879 0.228972 0.337116 0.196929 0.313752 0.167557 0.247664 0.166222 0.166222 0.154873 0.0967957 0.0967957 0.0961282 0.0961282 0.0961282 0.128838 0.275033 0.107477 0.0961282 0.0961282 0.0961282 0.0961282 0.0961282 0.0961282 0.0961282 0.145527 0.138852 0.135514 0.128838 0.121495 0.12283 0.122163 0.121495 0.121495 0.121495 0.134846 0.134179 0.133511 0.132844 0.0761015 0.0761015 0.0761015 0.0761015 0.0761015 0.0754339 0.0754339 0.0754339 0.0787717 0.0821095 0.0821095 0.0821095 0.0814419 0.0814419 0.0847797 0.14219 0.139519 0.135514 0.136182 0.138184 0.138184 0.137517 0.136849 0.137517 0.137517 0.134846 0.129506 0.130174 0.130841 0.119493 0.0687583 0.0680908 0.0674232 0.0674232 0.0674232 0.0674232 0.0674232 0.0674232 0.0674232 0.0654206 0.0560748 0.0560748 0.0534045 0.0520694 0.0534045 0.0520694 0.105474 0.110814 0.107477 0.106809 0.109479 0.110147 0.108812 0.108144 0.108812 0.109479 0.109479 0.108812 0.108812 0.103471 0.0520694 0.0520694 0.0520694 0.0574099 0.0600801 0.0594126 0.0600801 0.0600801 0.0600801 0.0600801 0.070761 0.0861148 0.0907877 0.0894526 0.0894526 0.0894526 0.0894526 0.0894526 0.0894526 0.0894526 0.088785 0.076769 0.076769 0.076769 0.127503 0.135514 0.136182 0.137517 0.139519 0.140187 0.139519 0.138852 0.138184 0.138852 0.138852 0.138852 0.0967957 0.0814419 0.0814419 0.0814419 0.0814419 0.0874499 0.0947931 0.0934579 0.0934579 0.0934579 0.0934579 0.0927904 0.0881175 0.0874499 0.0874499 0.0874499 0.0874499 0.0874499 0.0874499 0.0867824 0.0867824 0.0867824 0.0867824 0.0867824 0.0794393 0.0787717 0.0787717 0.0787717 0.0787717 0.0787717 0.0787717 0.0787717 0.0787717 0.0787717 0.0787717 0.0787717 0.0787717 0.0787717 0.0787717 0.0787717 0.0787717 0.0787717 0.0694259 0.0634179 0.0634179 0.0634179 0.0634179 0.0634179 0.0634179 0.0627503 0.0634179 0.0627503 0.0560748 0.0520694 0.0520694 0.0520694 0.0520694 0.0514019 0.0514019 0.0520694 0.0520694 0.0547397 0.0607477 0.0600801 0.0600801 0.0600801 0.0600801 0.0600801 0.0667557 0.0660881 0.0660881 0.0660881 0.0660881 0.0660881 0.0660881 0.0660881 0.0654206 0.116155 0.124166 0.120828 0.120828 0.122163 0.123498 0.122163 0.121495 0.125501 0.134846 0.134179 0.134179 0.0761015 0.0714286 0.0714286 0.0714286 0.0714286 0.0714286 0.0714286 0.0694259 0.0594126 0.0594126 0.0594126 0.0594126 0.0594126 0.0594126 0.0594126 0.0594126 0.0594126 0.0594126 0.0594126 0.0594126 0.0594126 0.0594126 0.0594126 0.0594126 0.0594126 0.0574099 0.0520694 0.0520694 0.0520694 0.0520694 0.0594126 0.0654206 0.064753 0.064753 0.064753 0.0834446 0.0847797 0.14219 0.140187 0.137517 0.138184 0.136182 0.127503 0.126168 0.126168 0.126168 0.126168 0.126168 0.126168 0.0967957 0.0687583 0.0687583 0.0687583 0.0687583 0.0687583 0.0687583 0.0687583 0.0720961 0.0747664 0.0747664 0.0747664 0.0747664 0.0754339 0.088785 0.0961282 0.0947931 0.0947931 0.0941255 0.0941255 0.0941255 0.0934579 0.0934579 0.0934579 0.0934579 0.0927904 0.0927904 0.0927904 0.0927904 0.0834446 0.0747664 0.0747664 0.0747664 0.0747664 0.0747664 0.0747664 0.0747664 0.0747664 0.134179 0.132844 0.150868 0.195594 0.197597 0.198264 0.197597 0.196929 0.196929 0.196929 0.196929 0.193591 0.0847797 0.0594126 0.0660881 0.0781041 0.0720961 0.0821095 0.0747664 0.0720961 0.0814419 0.0747664 0.0754339 0.088785 0.0834446 0.0801068 0.0874499 0.0867824 0.0720961 0.0660881 0.0761015 0.0640854 0.0640854 0.0774366 0.064753 0.0640854 0.0774366 0.0640854 0.0640854 0.0774366 0.064753 0.0654206 0.0787717 0.0660881 0.0667557 0.0841121 0.0901202 0.132844 0.113485 0.126836 0.100134 0.116822 0.130841 0.170227 0.168224 0.178905 0.166889 0.168224 0.184913 0.172897 0.17223 0.185581 0.169559 0.169559 0.135514 0.104139 0.11215 0.130174 0.113485 0.11482 0.130174 0.130174 0.126168 0.126836 0.133511 0.120828 0.121495 0.134179 0.124166 0.130841 0.145527 0.134846 0.128171 0.144192 0.128838 0.132176 0.148198 0.148198 0.149533 0.161549 0.148865 0.14219 0.1502 0.335781 0.331108 0.20494 0.301736 0.230975 0.260347 0.261015 0.228972 0.269025 0.199599 0.298398 0.167557 0.318425 0.17223 0.275701 0.221629 0.309746 0.291055 0.285714 0.324433 0.228304 0.239653 0.243658 0.403204 0.27036 0.238318 0.252336 0.26502 0.388518 0.222296 0.214953 0.220294 0.271696 0.35514 0.190254 0.189586 0.189586 0.254339 0.365821 0.192256 0.186248 0.187583 0.193591 0.345127 0.212283 0.183578 0.170227 0.170227 0.272363 0.323097 0.176235 0.201602 0.192256 0.190921 0.201602 0.183578 0.317757 0.255674 0.187583 0.191589 0.198932 0.203605 0.228972 0.255007 0.248999 0.224299 0.228304 0.263685 0.23498 0.222296 0.23498 0.221629 0.222296 0.232977 0.166889 0.165554 0.178238 0.222964 0.22964 0.228304 0.222964 0.212283 0.243658 0.431242 0.455941 0.242991 0.293725 0.239653 0.246996 0.29239 0.220294 0.321095 0.201602 0.304406 0.206275 0.311081 0.222296 0.260347 0.277704 0.231642 0.291722 0.244993 0.381175 0.232977 0.335113 0.256342 0.304406 0.283712 0.271028 0.323765 0.24032 0.338451 0.133511 0.280374 0.146862 0.289052 0.209613 0.3251 0.206943 0.272363 0.264352 0.187583 0.172897 0.179573 0.224967 0.349132 0.186248 0.317757 0.142857 0.127503 0.143525 0.12283 0.126168 0.137517 0.126836 0.133511 0.149533 0.14486 0.134179 0.154873 0.132844 0.14753 0.166889 0.162216 0.161549 0.146862 0.14486 0.182243 0.321762 0.283044 0.192256 0.225634 0.198264 0.174232 0.226969 0.137517 0.112817 0.11215 0.257009 0.180908 0.222964 0.118158 0.0961282 0.0954606 0.118158 0.274366 0.124166 0.184913 0.0954606 0.0954606 0.0947931 0.192256 0.220294 0.157543 0.131509 0.0941255 0.0867824 0.0861148 0.15287 0.243658 0.0974633 0.088785 0.0740988 0.0740988 0.0734312 0.0734312 0.0720961 0.0714286 0.0720961 0.0720961 0.0720961 0.0720961 0.0847797 0.171562 0.173565 0.17223 0.164887 0.154206 0.154873 0.154873 0.154206 0.154206 0.118158 0.0607477 0.0607477 0.0700935 0.0734312 0.0727637 0.0727637 0.0654206 0.0574099 0.0574099 0.0554072 0.0534045 0.0600801 0.0594126 0.058745 0.058745 0.11215 0.153538 0.146862 0.140187 0.140187 0.0580774 0.0460614 0.0460614 0.0460614 0.0460614 0.0460614 0.0460614 0.0460614 0.046729 0.0460614 0.0460614 0.0460614 0.0460614 0.0460614 0.0507343 0.0547397 0.0680908 0.0627503 0.0567423 0.0614152 0.0694259 0.0687583 0.124833 0.165554 0.164887 0.163551 0.163551 0.0954606 0.0680908 0.0680908 0.0674232 0.0667557 0.0667557 0.0667557 0.0667557 0.0667557 0.0660881 0.0547397 0.0540721 0.0540721 0.0540721 0.0540721 0.0540721 0.0540721 0.0540721 0.0540721 0.0540721 0.0547397 0.0614152 0.0620828 0.0627503 0.0620828 0.0574099 0.0547397 0.0547397 0.0547397 0.0547397 0.0547397 0.0981308 0.1502 0.156876 0.166222 0.167557 0.162884 0.162884 0.162884 0.0941255 0.0680908 0.0834446 0.0787717 0.0774366 0.076769 0.076769 0.0761015 0.0734312 0.0640854 0.0640854 0.0640854 0.0654206 0.0654206 0.0720961 0.082777 0.082777 0.151535 0.178905 0.179573 0.178238 0.176903 0.140854 0.0794393 0.0794393 0.0881175 0.0867824 0.0867824 0.0867824 0.0867824 0.088785 0.100801 0.099466 0.0987984 0.0987984 0.0987984 0.0987984 0.0987984 0.0981308 0.136182 0.196262 0.195594 0.196262 0.195594 0.191589 0.0981308 0.0981308 0.0981308 0.0981308 0.0981308 0.0981308 0.0974633 0.0974633 0.102136 0.106809 0.105474 0.0947931 0.0947931 0.0947931 0.0947931 0.165554 0.200267 0.198932 0.199599 0.199599 0.163551 0.0934579 0.0854473 0.0854473 0.0854473 0.0854473 0.0854473 0.0847797 0.0914553 0.0847797 0.0847797 0.0861148 0.0981308 0.0974633 0.0974633 0.135514 0.209613 0.203605 0.202937 0.203605 0.203605 0.133511 0.104139 0.104139 0.104139 0.099466 0.0967957 0.0961282 0.0961282 0.0961282 0.0967957 0.0921228 0.0847797 0.0847797 0.0847797 0.0847797 0.0847797 0.155541 0.183578 0.184246 0.184246 0.184246 0.179573 0.0841121 0.0847797 0.0847797 0.0847797 0.0841121 0.0847797 0.0847797 0.0847797 0.0847797 0.0947931 0.0974633 0.0967957 0.0967957 0.0967957 0.102804 0.195594 0.196929 0.196262 0.196262 0.196262 0.192924 0.0961282 0.103471 0.104139 0.0961282 0.0921228 0.0921228 0.0921228 0.0921228 0.0914553 0.0914553 0.0914553 0.0987984 0.0981308 0.110814 0.197597 0.198264 0.198264 0.198932 0.211615 0.212283 0.135514 0.104806 0.114152 0.118158 0.118158 0.118158 0.130841 0.218291 0.218959 0.218291 0.218291 0.216956 0.213618 0.214286 0.212951 0.213618 0.204272 0.201602 0.18024 0.0987984 0.0987984 0.0987984 0.0987984 0.0987984 0.0987984 0.0987984 0.154873 0.200935 0.201602 0.200267 0.200267 0.200935 0.200267 0.200267 0.131509 0.11215 0.110814 0.110814 0.110814 0.110147 0.110147 0.110147 0.116155 0.211615 0.211615 0.212283 0.212283 0.213618 0.208278 0.192924 0.154206 0.0907877 0.0907877 0.108812 0.0921228 0.104139 0.102804 0.102804 0.102804 0.159546 0.205607 0.206275 0.194259 0.21028 0.194259 0.208278 0.194259 0.129506 0.0954606 0.0881175 0.0941255 0.0934579 0.0934579 0.0841121 0.0814419 0.0874499 0.183578 0.184246 0.184246 0.183578 0.183578 0.182911 0.182911 0.144192 0.0801068 0.0801068 0.0801068 0.0801068 0.0821095 0.088785 0.0874499 0.082777 0.12283 0.187583 0.190254 0.199599 0.212951 0.213618 0.214286 0.228972 0.193591 0.132176 0.191589 0.331108 0.268358 0.258344 0.211615 0.278371 0.1749 0.346462 0.271696 0.389186 0.299733 0.343124 0.321762 0.310414 0.397196 0.340454 0.363151 0.214953 0.363818 0.259012 0.326435 0.29239 0.291055 0.318425 0.341121 0.451936 0.385848 0.534713 0.393191 0.532043 0.430574 0.504673 0.391856 0.384513 0.397864 0.301736 0.361148 0.248999 0.381175 0.244326 0.475968 0.338451 0.451936 0.372497 0.423231 0.408545 0.397864 0.445928 0.298398 0.385848 0.252336 0.385848 0.356475 0.5 0.360481 0.406542 0.503338 0.592123 0.765688 0.586115 0.506676 0.409212 0.454606 0.485314 0.508011 0.428571 0.375834 0.331108 0.311081 0.312417 0.368491 0.377837 0.342457 0.390521 0.405207 0.481308 0.668224 0.536716 0.572764 0.441923 0.576769 0.491322 0.489319 0.435915 0.375834 0.469292 0.405207 0.552737 0.365154 0.511348 0.435915 0.582109 0.393858 0.483311 0.391856 0.437917 0.509346 0.517356 0.481308 0.355808 0.408545 0.266355 0.404539 0.395861 0.414553 0.313084 0.450601 0.453939 0.405874 0.461282 0.290387 0.427904 0.303071 0.405874 0.294393 0.266355 0.253672 0.228304 0.277704 0.197597 0.305073 0.173565 0.367824 0.275033 0.224967 0.174232 0.166889 0.168224 0.164887 0.163551 0.159546 0.160214 0.159546 0.159546 0.159546 0.159546 0.159546 0.158879 0.15287 0.182911 0.248331 0.249666 0.22964 0.22964 0.238985 0.220294 0.132844 0.132176 0.132176 0.132844 0.145527 0.14219 0.22964 0.337784 0.197597 0.299065 0.156208 0.148865 0.401202 0.283712 0.403872 0.294393 0.409212 0.250334 0.354473 0.140187 0.277704 0.182243 0.301068 0.281709 0.285714 0.298398 0.26235 0.323765 0.231642 0.394526 0.311081 0.465955 0.324433 0.446595 0.354473 0.40721 0.314419 0.277036 0.315754 0.249666 0.340454 0.218291 0.354473 0.220961 0.339786 0.248999 0.419226 0.493324 0.464619 0.466622 0.34713 0.41522 0.37717 0.396529 0.17223 0.394526 0.251001 0.272363 0.258344 0.283044 0.200267 0.313752 0.433244 0.299733 0.38251 0.385848 0.31976 0.287717 0.367824 0.341121 0.214286 0.241656 0.260347 0.248331 0.214953 0.269025 0.191589 0.188251 0.26769 0.210948 0.198264 0.347797 0.332443 0.260347 0.299733 0.331108 0.248999 0.232977 0.23498 0.166222 0.146862 0.230975 0.193591 0.146862 0.200935 0.221629 0.146862 0.172897 0.309079 0.260347 0.249666 0.341121 0.289052 0.251001 0.313084 0.231642 0.164887 0.167557 0.156876 0.155541 0.155541 0.146195 0.150868 0.151535 0.140187 0.145527 0.241656 0.246328 0.242991 0.250334 0.347797 0.440587 0.288385 0.308411 0.17223 0.281709 0.192924 0.228972 0.157543 0.159546 0.158211 0.155541 0.276368 0.303738 0.253004 0.258344 0.257677 0.259012 0.289052 0.430574 0.20227 0.14753 0.1502 0.151535 0.15287 0.133511 0.130841 0.130841 0.130841 0.129506 0.180908 0.214286 0.223632 0.226302 0.291055 0.353138 0.385848 0.337116 0.211615 0.232977 0.305073 0.221629 0.206275 0.214953 0.273698 0.29506 0.220294 0.251669 0.409212 0.328438 0.314419 0.393191 0.361816 0.316422 0.304406 0.218291 0.233645 0.313752 0.333778 0.246328 0.243658 0.244993 0.244326 0.248331 0.236983 0.29239 0.332443 0.344459 0.333778 0.3498 0.350467 0.350467 0.269693 0.233645 0.217623 0.215621 0.212283 0.214286 0.215621 0.234312 0.239653 0.208278 0.202937 0.25968 0.306409 0.307076 0.305741 0.306409 0.307744 0.29773 0.230307 0.20227 0.20761 0.206943 0.208278 0.21028 0.213618 0.227637 0.221629 0.221629 0.223632 0.317757 0.330441 0.3251 0.315087 0.315087 0.315087 0.257677 0.259012 0.248331 0.247664 0.245661 0.245661 0.245661 0.220961 0.212951 0.212283 0.20227 0.269693 0.280374 0.261682 0.251001 0.251001 0.252336 0.213618 0.15287 0.15287 0.152203 0.152203 0.152203 0.152203 0.152203 0.152203 0.152203 0.197597 0.35247 0.291722 0.381842 0.339119 0.427236 0.297063 0.427236 0.323097 0.291722 0.26502 0.253672 0.300401 0.220294 0.336449 0.191589 0.342457 0.190254 0.307744 0.218959 0.26502 0.296395 0.323765 0.395861 0.281041 0.413885 0.311749 0.337116 0.245661 0.260347 0.277704 0.226969 0.308411 0.191589 0.337116 0.224299 0.317757 0.256342 0.285714 0.288385 0.321095 0.422563 0.310414 0.437917 0.317757 0.405207 0.261015 0.273698 0.298398 0.235648 0.337116 0.200935 0.329105 0.186248 0.324433 0.201602 0.341789 0.20494 0.290387 0.308411 0.331776 0.361816 0.307076 0.403872 0.273698 0.314419 0.164887 0.318425 0.174232 0.317757 0.198932 0.296395 0.23498 0.281709 0.269693 0.23765 0.166889 0.231642 0.323765 0.351802 0.258344 0.337116 0.220294 0.154206 0.0947931 0.0921228 0.0921228 0.0861148 0.0847797 0.0847797 0.0841121 0.0847797 0.0754339 0.0727637 0.0727637 0.0727637 0.0727637 0.0700935 0.0700935 0.158879 0.160214 0.159546 0.159546 0.162216 0.131509 0.070761 0.070761 0.070761 0.070761 0.0834446 0.0841121 0.0861148 0.126168 0.139519 0.143525 0.144192 0.142857 0.142857 0.14219 0.14219 0.0901202 0.121495 0.179573 0.174232 0.172897 0.168892 0.154206 0.0627503 0.0627503 0.0627503 0.0627503 0.0627503 0.0620828 0.0620828 0.0574099 0.0567423 0.0594126 0.0754339 0.0747664 0.0740988 0.0740988 0.110147 0.226302 0.261015 0.271028 0.27036 0.269025 0.200935 0.172897 0.172897 0.140854 0.11482 0.11482 0.111482 0.0841121 0.0781041 0.0781041 0.0781041 0.0781041 0.0700935 0.0660881 0.0660881 0.0654206 0.0654206 0.0720961 0.160881 0.160881 0.160881 0.160881 0.124166 0.0654206 0.107477 0.136182 0.139519 0.139519 0.136182 0.134846 0.142857 0.148198 0.14753 0.11482 0.0894526 0.0894526 0.0861148 0.082777 0.082777 0.082777 0.082777 0.0894526 0.088785 0.0847797 0.0761015 0.14486 0.171562 0.182243 0.182911 0.182243 0.0987984 0.0874499 0.0874499 0.0867824 0.126168 0.136849 0.139519 0.138852 0.138852 0.138852 0.138852 0.138184 0.138184 0.0841121 0.0747664 0.0747664 0.0687583 0.0680908 0.0680908 0.0680908 0.0680908 0.0627503 0.052737 0.0667557 0.133511 0.160214 0.160214 0.159546 0.154873 0.064753 0.064753 0.064753 0.064753 0.102804 0.124166 0.128838 0.125501 0.116822 0.116155 0.112817 0.058745 0.058745 0.058745 0.052737 0.052737 0.052737 0.052737 0.052737 0.052737 0.052737 0.052737 0.052737 0.052737 0.0520694 0.0607477 0.0654206 0.064753 0.0854473 0.120828 0.128838 0.135514 0.221629 0.222964 0.222964 0.200267 0.113485 0.070761 0.0694259 0.0607477 0.0594126 0.058745 0.058745 0.058745 0.058745 0.058745 0.058745 0.058745 0.0580774 0.0580774 0.0580774 0.0580774 0.0580774 0.0580774 0.0580774 0.0580774 0.0640854 0.0714286 0.0700935 0.0700935 0.0901202 0.120828 0.128838 0.128838 0.128171 0.128171 0.128171 0.128171 0.11482 0.0634179 0.0634179 0.0740988 0.0654206 0.0627503 0.0627503 0.0627503 0.0627503 0.0627503 0.130841 0.156876 0.156876 0.156876 0.136182 0.0620828 0.0620828 0.0627503 0.0620828 0.0620828 0.0620828 0.0620828 0.0620828 0.0747664 0.0747664 0.0747664 0.120828 0.135514 0.137517 0.137517 0.137517 0.136849 0.104806 0.0801068 0.0794393 0.076769 0.064753 0.0614152 0.0614152 0.0694259 0.0694259 0.0687583 0.0687583 0.0687583 0.0687583 0.0687583 0.0687583 0.0734312 0.0747664 0.0747664 0.0747664 0.0747664 0.0747664 0.0814419 0.1749 0.182243 0.181575 0.176903 0.0867824 0.0867824 0.0867824 0.0974633 0.115487 0.11482 0.11482 0.15287 0.174232 0.178238 0.178238 0.1749 0.17223 0.142857 0.118825 0.0740988 0.0740988 0.0734312 0.0580774 0.052737 0.052737 0.052737 0.052737 0.052737 0.052737 0.052737 0.052737 0.0634179 0.0674232 0.0667557 0.0660881 0.0660881 0.0654206 0.0660881 0.0660881 0.0654206 0.0654206 0.0654206 0.0654206 0.0654206 0.0654206 0.0580774 0.0580774 0.0580774 0.0580774 0.0580774 0.0580774 0.0580774 0.0580774 0.0580774 0.0580774 0.0580774 0.0614152 0.109479 0.120828 0.121495 0.121495 0.140854 0.173565 0.129506 0.129506 0.128171 0.12283 0.12283 0.12283 0.12283 0.130174 0.0761015 0.0640854 0.064753 0.076769 0.0634179 0.0680908 0.0727637 0.0694259 0.156876 0.169559 0.156876 0.152203 0.0821095 0.0734312 0.0747664 0.0881175 0.0747664 0.0740988 0.0881175 0.0740988 0.0734312 0.0821095 0.0687583 0.0687583 0.0821095 0.0720961 0.119493 0.141522 0.134179 0.132176 0.132844 0.14219 0.0941255 0.0934579 0.105474 0.0861148 0.0861148 0.099466 0.0861148 0.0861148 0.099466 0.0861148 0.0914553 0.158211 0.156208 0.151535 0.162216 0.148198 0.148198 0.155541 0.153538 0.148198 0.14753 0.160881 0.140187 0.13618