New "Transformer.service50kva" XfmrCode=1-ph50kVA-2 buses=[source_bus.1.0, upfc_input.1, ]
New "Transformer.tupfcout" XfmrCode=UPFCInterface buses=[upfc_output.1.0, load_bus.1.0, load_bus.0.2, ]
