New "Load.aggregated" phases=3 bus1=aggld kV=12.47 kW=9723.2 yearly=Aggregated model=4 NumCust=1 CVRwatts=0.7 CVRvars=3 class=1 pf=1
