New "Load.b5218-1-b_cust1" phases=1 bus1=x_b5218_cust1-b.2 kV=0.24 kW=4.2265715 kvar=2.812835 status=variable model=4 CVRwatts=0.8 CVRvars=3 class=1 NumCust=1 yearly=Other
New "Load.b5213-1-c_cust1" phases=1 bus1=x_b5213_cust1-c.3 kV=0.24 kW=3.0965421 kvar=1.9544377 status=variable model=4 CVRwatts=0.8 CVRvars=3 class=1 NumCust=1 yearly=Other
New "Load.b13220-1-c_cust1" phases=1 bus1=x_b13220_cust1-c.3 kV=0.24 kW=3.0965421 kvar=1.9544377 status=variable model=4 CVRwatts=0.8 CVRvars=3 class=1 NumCust=1 yearly=Other
New "Load.b59433-1-c_cust1" phases=1 bus1=x_b59433_cust1-c.3 kV=0.24 kW=1.54827105 kvar=0.97721885 status=variable model=4 CVRwatts=0.8 CVRvars=3 class=1 NumCust=1 yearly=Other
New "Load.b59433-1-c_cust2" phases=1 bus1=x_b59433_cust2-c.3 kV=0.24 kW=1.54827105 kvar=0.97721885 status=variable model=4 CVRwatts=0.8 CVRvars=3 class=1 NumCust=1 yearly=Other
New "Load.b13752-1-c_cust1" phases=1 bus1=x_b13752_cust1-c.3 kV=0.24 kW=3.0965421 kvar=1.9544377 status=variable model=4 CVRwatts=0.8 CVRvars=3 class=1 NumCust=1 yearly=Other
New "Load.b29921-1-c_cust1" phases=1 bus1=x_b29921_cust1-c.3 kV=0.24 kW=3.0965421 kvar=1.9544377 status=variable model=4 CVRwatts=0.8 CVRvars=3 class=1 NumCust=1 yearly=Other
New "Load.b5209-1-c_cust1" phases=1 bus1=x_b5209_cust1-c.3 kV=0.24 kW=0.61930842 kvar=0.39088754 status=variable model=4 CVRwatts=0.8 CVRvars=3 class=1 NumCust=1 yearly=Other
New "Load.b5209-1-c_cust2" phases=1 bus1=x_b5209_cust2-c.3 kV=0.24 kW=0.61930842 kvar=0.39088754 status=variable model=4 CVRwatts=0.8 CVRvars=3 class=1 NumCust=1 yearly=Other
New "Load.b5209-1-c_cust3" phases=1 bus1=x_b5209_cust3-c.3 kV=0.24 kW=0.61930842 kvar=0.39088754 status=variable model=4 CVRwatts=0.8 CVRvars=3 class=1 NumCust=1 yearly=Other
New "Load.b5209-1-c_cust4" phases=1 bus1=x_b5209_cust4-c.3 kV=0.24 kW=0.61930842 kvar=0.39088754 status=variable model=4 CVRwatts=0.8 CVRvars=3 class=1 NumCust=1 yearly=Other
New "Load.b5209-1-c_cust5" phases=1 bus1=x_b5209_cust5-c.3 kV=0.24 kW=0.61930842 kvar=0.39088754 status=variable model=4 CVRwatts=0.8 CVRvars=3 class=1 NumCust=1 yearly=Other
New "Load.b5207-1-c_cust1" phases=1 bus1=x_b5207_cust1-c.3 kV=0.24 kW=1.0321807 kvar=0.651479233333333 status=variable model=4 CVRwatts=0.8 CVRvars=3 class=1 NumCust=1 yearly=Other
New "Load.b5207-1-c_cust2" phases=1 bus1=x_b5207_cust2-c.3 kV=0.24 kW=1.0321807 kvar=0.651479233333333 status=variable model=4 CVRwatts=0.8 CVRvars=3 class=1 NumCust=1 yearly=Other
New "Load.b5207-1-c_cust3" phases=1 bus1=x_b5207_cust3-c.3 kV=0.24 kW=1.0321807 kvar=0.651479233333333 status=variable model=4 CVRwatts=0.8 CVRvars=3 class=1 NumCust=1 yearly=Other
New "Load.b5206-1-c_cust1" phases=1 bus1=x_b5206_cust1-c.3 kV=0.24 kW=2.5804518 kvar=1.6286981 status=variable model=4 CVRwatts=0.8 CVRvars=3 class=1 NumCust=1 yearly=Other
New "Load.b5206-1-c_cust2" phases=1 bus1=x_b5206_cust2-c.3 kV=0.24 kW=2.5804518 kvar=1.6286981 status=variable model=4 CVRwatts=0.8 CVRvars=3 class=1 NumCust=1 yearly=Other
New "Load.b5194-1-a_cust1" phases=1 bus1=x_b5194_cust1-a.1 kV=0.24 kW=10.086402 kvar=7.3297045 status=variable model=4 CVRwatts=0.8 CVRvars=3 class=1 NumCust=1 yearly=Other
New "Load.b5193-1-b_cust1" phases=1 bus1=x_b5193_cust1-b.2 kV=0.24 kW=2.11328575 kvar=1.4064175 status=variable model=4 CVRwatts=0.8 CVRvars=3 class=1 NumCust=1 yearly=Other
New "Load.b5193-1-b_cust2" phases=1 bus1=x_b5193_cust2-b.2 kV=0.24 kW=2.11328575 kvar=1.4064175 status=variable model=4 CVRwatts=0.8 CVRvars=3 class=1 NumCust=1 yearly=Other
New "Load.b5188-1-a_cust1" phases=1 bus1=x_b5188_cust1-a.1 kV=0.24 kW=2.0172804 kvar=1.4659409 status=variable model=4 CVRwatts=0.8 CVRvars=3 class=1 NumCust=1 yearly=Other
New "Load.b5188-1-a_cust2" phases=1 bus1=x_b5188_cust2-a.1 kV=0.24 kW=2.0172804 kvar=1.4659409 status=variable model=4 CVRwatts=0.8 CVRvars=3 class=1 NumCust=1 yearly=Other
New "Load.b5186-1-b_cust1" phases=1 bus1=x_b5186_cust1-b.2 kV=0.24 kW=4.2265715 kvar=2.812835 status=variable model=4 CVRwatts=0.8 CVRvars=3 class=1 NumCust=1 yearly=Other
New "Load.b5185-1-c_cust1" phases=1 bus1=x_b5185_cust1-c.3 kV=0.24 kW=5.1609036 kvar=3.2573962 status=variable model=4 CVRwatts=0.8 CVRvars=3 class=1 NumCust=1 yearly=Other
New "Load.b11365-1-c_cust1" phases=1 bus1=x_b11365_cust1-c.3 kV=0.24 kW=4.1287228 kvar=2.605917 status=variable model=4 CVRwatts=0.8 CVRvars=3 class=1 NumCust=1 yearly=Other
New "Load.b11365-1-b_cust1" phases=1 bus1=x_b11365_cust1-b.2 kV=0.24 kW=5.6354287 kvar=3.7504467 status=variable model=4 CVRwatts=0.8 CVRvars=3 class=1 NumCust=1 yearly=Other
New "Load.b11367-1-b_cust1" phases=1 bus1=x_b11367_cust1-b.2 kV=0.24 kW=7.0442859 kvar=4.6880584 status=variable model=4 CVRwatts=0.8 CVRvars=3 class=1 NumCust=1 yearly=Other
New "Load.b11368-1-b_cust1" phases=1 bus1=x_b11368_cust1-b.2 kV=0.24 kW=2.11328575 kvar=1.4064175 status=variable model=4 CVRwatts=0.8 CVRvars=3 class=1 NumCust=1 yearly=Other
New "Load.b11368-1-b_cust2" phases=1 bus1=x_b11368_cust2-b.2 kV=0.24 kW=2.11328575 kvar=1.4064175 status=variable model=4 CVRwatts=0.8 CVRvars=3 class=1 NumCust=1 yearly=Other
New "Load.b11418-1-b_cust1" phases=1 bus1=x_b11418_cust1-b.2 kV=0.24 kW=1.40885718 kvar=0.93761168 status=variable model=4 CVRwatts=0.8 CVRvars=3 class=1 NumCust=1 yearly=Other
New "Load.b11418-1-b_cust2" phases=1 bus1=x_b11418_cust2-b.2 kV=0.24 kW=1.40885718 kvar=0.93761168 status=variable model=4 CVRwatts=0.8 CVRvars=3 class=1 NumCust=1 yearly=Other
New "Load.b11418-1-b_cust3" phases=1 bus1=x_b11418_cust3-b.2 kV=0.24 kW=1.40885718 kvar=0.93761168 status=variable model=4 CVRwatts=0.8 CVRvars=3 class=1 NumCust=1 yearly=Other
New "Load.b11418-1-b_cust4" phases=1 bus1=x_b11418_cust4-b.2 kV=0.24 kW=1.40885718 kvar=0.93761168 status=variable model=4 CVRwatts=0.8 CVRvars=3 class=1 NumCust=1 yearly=Other
New "Load.b11418-1-b_cust5" phases=1 bus1=x_b11418_cust5-b.2 kV=0.24 kW=1.40885718 kvar=0.93761168 status=variable model=4 CVRwatts=0.8 CVRvars=3 class=1 NumCust=1 yearly=Other
New "Load.b2526-1-b_cust1" phases=1 bus1=x_b2526_cust1-b.2 kV=0.24 kW=1.40885716666667 kvar=0.937611666666667 status=variable model=4 CVRwatts=0.8 CVRvars=3 class=1 NumCust=1 yearly=Other
New "Load.b2526-1-b_cust2" phases=1 bus1=x_b2526_cust2-b.2 kV=0.24 kW=1.40885716666667 kvar=0.937611666666667 status=variable model=4 CVRwatts=0.8 CVRvars=3 class=1 NumCust=1 yearly=Other
New "Load.b2526-1-b_cust3" phases=1 bus1=x_b2526_cust3-b.2 kV=0.24 kW=1.40885716666667 kvar=0.937611666666667 status=variable model=4 CVRwatts=0.8 CVRvars=3 class=1 NumCust=1 yearly=Other
New "Load.b2532-1-a_cust1" phases=1 bus1=x_b2532_cust1-a.1 kV=0.24 kW=4.0345608 kvar=2.9318818 status=variable model=4 CVRwatts=0.8 CVRvars=3 class=1 NumCust=1 yearly=Other
New "Load.b29178-1-a_cust1" phases=1 bus1=x_b29178_cust1-a.1 kV=0.24 kW=4.0345608 kvar=2.9318818 status=variable model=4 CVRwatts=0.8 CVRvars=3 class=1 NumCust=1 yearly=Other
New "Load.b29179-1-c_cust1" phases=1 bus1=x_b29179_cust1-c.3 kV=0.24 kW=3.0965421 kvar=1.9544377 status=variable model=4 CVRwatts=0.8 CVRvars=3 class=1 NumCust=1 yearly=Commercial
New "Load.b29179-1-a_cust1" phases=1 bus1=x_b29179_cust1-a.1 kV=0.24 kW=4.0345608 kvar=2.9318818 status=variable model=4 CVRwatts=0.8 CVRvars=3 class=1 NumCust=1 yearly=Commercial
New "Load.b29181-1-a_cust1" phases=1 bus1=x_b29181_cust1-a.1 kV=0.24 kW=4.0345608 kvar=2.9318818 status=variable model=4 CVRwatts=0.8 CVRvars=3 class=1 NumCust=1 yearly=Other
New "Load.b42005-1-a_cust1" phases=1 bus1=x_b42005_cust1-a.1 kV=0.24 kW=6.724268 kvar=4.8864697 status=variable model=4 CVRwatts=0.8 CVRvars=3 class=1 NumCust=1 yearly=Other
New "Load.5912527743-1-a_cust1" phases=1 bus1=x_5912527743_cust1-a.1 kV=0.24 kW=20.172804 kvar=14.659409 status=variable model=4 CVRwatts=0.8 CVRvars=3 class=1 NumCust=1 yearly=Other
New "Load.b16658-1-a_cust1" phases=1 bus1=x_b16658_cust1-a.1 kV=0.24 kW=4.0345608 kvar=2.9318818 status=variable model=4 CVRwatts=0.8 CVRvars=3 class=1 NumCust=1 yearly=Other
New "Load.b22569-1-a_cust1" phases=1 bus1=x_b22569_cust1-a.1 kV=0.24 kW=4.0345608 kvar=2.9318818 status=variable model=4 CVRwatts=0.8 CVRvars=3 class=1 NumCust=1 yearly=Other
New "Load.b22565-1-a_cust1" phases=1 bus1=x_b22565_cust1-a.1 kV=0.24 kW=2.0172804 kvar=1.4659409 status=variable model=4 CVRwatts=0.8 CVRvars=3 class=1 NumCust=1 yearly=Other
New "Load.b22565-1-a_cust2" phases=1 bus1=x_b22565_cust2-a.1 kV=0.24 kW=2.0172804 kvar=1.4659409 status=variable model=4 CVRwatts=0.8 CVRvars=3 class=1 NumCust=1 yearly=Other
New "Load.g42777-1-c_cust1" phases=1 bus1=x_g42777_cust1-c.3 kV=0.24 kW=3.0965421 kvar=1.9544377 status=variable model=4 CVRwatts=0.8 CVRvars=3 class=1 NumCust=1 yearly=Other
New "Load.b22157-1-c_cust1" phases=1 bus1=x_b22157_cust1-c.3 kV=0.24 kW=1.0321807 kvar=0.651479233333333 status=variable model=4 CVRwatts=0.8 CVRvars=3 class=1 NumCust=1 yearly=Other
New "Load.b22157-1-c_cust2" phases=1 bus1=x_b22157_cust2-c.3 kV=0.24 kW=1.0321807 kvar=0.651479233333333 status=variable model=4 CVRwatts=0.8 CVRvars=3 class=1 NumCust=1 yearly=Other
New "Load.b22157-1-c_cust3" phases=1 bus1=x_b22157_cust3-c.3 kV=0.24 kW=1.0321807 kvar=0.651479233333333 status=variable model=4 CVRwatts=0.8 CVRvars=3 class=1 NumCust=1 yearly=Other
New "Load.b36180-1-c_cust1" phases=1 bus1=x_b36180_cust1-c.3 kV=0.24 kW=3.0965421 kvar=1.9544377 status=variable model=4 CVRwatts=0.8 CVRvars=3 class=1 NumCust=1 yearly=Other
New "Load.b36181-1-c_cust1" phases=1 bus1=x_b36181_cust1-c.3 kV=0.24 kW=3.0965421 kvar=1.9544377 status=variable model=4 CVRwatts=0.8 CVRvars=3 class=1 NumCust=1 yearly=Other
New "Load.b36183-1-c_cust1" phases=1 bus1=x_b36183_cust1-c.3 kV=0.24 kW=3.0965421 kvar=1.9544377 status=variable model=4 CVRwatts=0.8 CVRvars=3 class=1 NumCust=1 yearly=Other
New "Load.b60867-1-c_cust1" phases=1 bus1=x_b60867_cust1-c.3 kV=0.24 kW=3.0965421 kvar=1.9544377 status=variable model=4 CVRwatts=0.8 CVRvars=3 class=1 NumCust=1 yearly=Other
New "Load.b60925-1-c_cust1" phases=1 bus1=x_b60925_cust1-c.3 kV=0.24 kW=2.5804518 kvar=1.6286981 status=variable model=4 CVRwatts=0.8 CVRvars=3 class=1 NumCust=1 yearly=Other
New "Load.b60925-1-c_cust2" phases=1 bus1=x_b60925_cust2-c.3 kV=0.24 kW=2.5804518 kvar=1.6286981 status=variable model=4 CVRwatts=0.8 CVRvars=3 class=1 NumCust=1 yearly=Other
New "Load.b60926-1-c_cust1" phases=1 bus1=x_b60926_cust1-c.3 kV=0.24 kW=5.1609036 kvar=3.2573962 status=variable model=4 CVRwatts=0.8 CVRvars=3 class=1 NumCust=1 yearly=Other
New "Load.b60930-1-c_cust1" phases=1 bus1=x_b60930_cust1-c.3 kV=0.24 kW=5.1609036 kvar=3.2573962 status=variable model=4 CVRwatts=0.8 CVRvars=3 class=1 NumCust=1 yearly=Other
New "Load.b60931-1-c_cust1" phases=1 bus1=x_b60931_cust1-c.3 kV=0.24 kW=5.1609036 kvar=3.2573962 status=variable model=4 CVRwatts=0.8 CVRvars=3 class=1 NumCust=1 yearly=Commercial
New "Load.b60933-1-c_cust1" phases=1 bus1=x_b60933_cust1-c.3 kV=0.24 kW=2.5804518 kvar=1.6286981 status=variable model=4 CVRwatts=0.8 CVRvars=3 class=1 NumCust=1 yearly=Other
New "Load.b60933-1-c_cust2" phases=1 bus1=x_b60933_cust2-c.3 kV=0.24 kW=2.5804518 kvar=1.6286981 status=variable model=4 CVRwatts=0.8 CVRvars=3 class=1 NumCust=1 yearly=Other
New "Load.b60934-1-c_cust1" phases=1 bus1=x_b60934_cust1-c.3 kV=0.24 kW=1.54827105 kvar=0.97721885 status=variable model=4 CVRwatts=0.8 CVRvars=3 class=1 NumCust=1 yearly=Other
New "Load.b60934-1-c_cust2" phases=1 bus1=x_b60934_cust2-c.3 kV=0.24 kW=1.54827105 kvar=0.97721885 status=variable model=4 CVRwatts=0.8 CVRvars=3 class=1 NumCust=1 yearly=Other
New "Load.g43135-1-c_cust1" phases=1 bus1=x_g43135_cust1-c.3 kV=0.24 kW=5.1609036 kvar=3.2573962 status=variable model=4 CVRwatts=0.8 CVRvars=3 class=1 NumCust=1 yearly=Other
New "Load.5957328181-1-c_cust1" phases=1 bus1=x_5957328181_cust1-c.3 kV=0.24 kW=5.1609036 kvar=3.2573962 status=variable model=4 CVRwatts=0.8 CVRvars=3 class=1 NumCust=1 yearly=Other
New "Load.b60937-1-c_cust1" phases=1 bus1=x_b60937_cust1-c.3 kV=0.24 kW=5.1609036 kvar=3.2573962 status=variable model=4 CVRwatts=0.8 CVRvars=3 class=1 NumCust=1 yearly=Other
New "Load.b60938-1-c_cust1" phases=1 bus1=x_b60938_cust1-c.3 kV=0.24 kW=3.0965421 kvar=1.9544377 status=variable model=4 CVRwatts=0.8 CVRvars=3 class=1 NumCust=1 yearly=Other
New "Load.b60939-1-c_cust1" phases=1 bus1=x_b60939_cust1-c.3 kV=0.24 kW=2.58045176666667 kvar=1.6286981 status=variable model=4 CVRwatts=0.8 CVRvars=3 class=1 NumCust=1 yearly=Other
New "Load.b60939-1-c_cust2" phases=1 bus1=x_b60939_cust2-c.3 kV=0.24 kW=2.58045176666667 kvar=1.6286981 status=variable model=4 CVRwatts=0.8 CVRvars=3 class=1 NumCust=1 yearly=Other
New "Load.b60939-1-c_cust3" phases=1 bus1=x_b60939_cust3-c.3 kV=0.24 kW=2.58045176666667 kvar=1.6286981 status=variable model=4 CVRwatts=0.8 CVRvars=3 class=1 NumCust=1 yearly=Other
New "Load.b60940-1-c_cust1" phases=1 bus1=x_b60940_cust1-c.3 kV=0.24 kW=1.7203012 kvar=1.08579873333333 status=variable model=4 CVRwatts=0.8 CVRvars=3 class=1 NumCust=1 yearly=Other
New "Load.b60940-1-c_cust2" phases=1 bus1=x_b60940_cust2-c.3 kV=0.24 kW=1.7203012 kvar=1.08579873333333 status=variable model=4 CVRwatts=0.8 CVRvars=3 class=1 NumCust=1 yearly=Other
New "Load.b60940-1-c_cust3" phases=1 bus1=x_b60940_cust3-c.3 kV=0.24 kW=1.7203012 kvar=1.08579873333333 status=variable model=4 CVRwatts=0.8 CVRvars=3 class=1 NumCust=1 yearly=Other
New "Load.b60943-1-c_cust1" phases=1 bus1=x_b60943_cust1-c.3 kV=0.24 kW=3.0965421 kvar=1.9544377 status=variable model=4 CVRwatts=0.8 CVRvars=3 class=1 NumCust=1 yearly=Other
New "Load.5939228210-1-c_cust1" phases=1 bus1=x_5939228210_cust1-c.3 kV=0.24 kW=5.1609036 kvar=3.2573962 status=variable model=4 CVRwatts=0.8 CVRvars=3 class=1 NumCust=1 yearly=Other
New "Load.5927928223-1-c_cust1" phases=1 bus1=x_5927928223_cust1-c.3 kV=0.24 kW=5.1609036 kvar=3.2573962 status=variable model=4 CVRwatts=0.8 CVRvars=3 class=1 NumCust=1 yearly=Other
New "Load.5927628217-1-c_cust1" phases=1 bus1=x_5927628217_cust1-c.3 kV=0.24 kW=5.1609036 kvar=3.2573962 status=variable model=4 CVRwatts=0.8 CVRvars=3 class=1 NumCust=1 yearly=Other
New "Load.5931928222-1-c_cust1" phases=1 bus1=x_5931928222_cust1-c.3 kV=0.24 kW=5.1609036 kvar=3.2573962 status=variable model=4 CVRwatts=0.8 CVRvars=3 class=1 NumCust=1 yearly=Other
New "Load.5934828209-1-c_cust1" phases=1 bus1=x_5934828209_cust1-c.3 kV=0.24 kW=5.1609036 kvar=3.2573962 status=variable model=4 CVRwatts=0.8 CVRvars=3 class=1 NumCust=1 yearly=Other
New "Load.5940428202-1-c_cust1" phases=1 bus1=x_5940428202_cust1-c.3 kV=0.24 kW=5.1609036 kvar=3.2573962 status=variable model=4 CVRwatts=0.8 CVRvars=3 class=1 NumCust=1 yearly=Other
New "Load.5944828194-1-c_cust1" phases=1 bus1=x_5944828194_cust1-c.3 kV=0.24 kW=5.1609036 kvar=3.2573962 status=variable model=4 CVRwatts=0.8 CVRvars=3 class=1 NumCust=1 yearly=Other
New "Load.g42979-1-c_cust1" phases=1 bus1=x_g42979_cust1-c.3 kV=0.24 kW=5.1609036 kvar=3.2573962 status=variable model=4 CVRwatts=0.8 CVRvars=3 class=1 NumCust=1 yearly=Other
New "Load.b61249-1-c_cust1" phases=1 bus1=x_b61249_cust1-c.3 kV=0.24 kW=5.1609036 kvar=3.2573962 status=variable model=4 CVRwatts=0.8 CVRvars=3 class=1 NumCust=1 yearly=Other
New "Load.b60870-1-c_cust1" phases=1 bus1=x_b60870_cust1-c.3 kV=0.24 kW=2.5804518 kvar=1.6286981 status=variable model=4 CVRwatts=0.8 CVRvars=3 class=1 NumCust=1 yearly=Other
New "Load.b60870-1-c_cust2" phases=1 bus1=x_b60870_cust2-c.3 kV=0.24 kW=2.5804518 kvar=1.6286981 status=variable model=4 CVRwatts=0.8 CVRvars=3 class=1 NumCust=1 yearly=Other
New "Load.b60872-1-c_cust1" phases=1 bus1=x_b60872_cust1-c.3 kV=0.24 kW=3.0965421 kvar=1.9544377 status=variable model=4 CVRwatts=0.8 CVRvars=3 class=1 NumCust=1 yearly=Other
New "Load.b60873-1-c_cust1" phases=1 bus1=x_b60873_cust1-c.3 kV=0.24 kW=5.1609036 kvar=3.2573962 status=variable model=4 CVRwatts=0.8 CVRvars=3 class=1 NumCust=1 yearly=Other
New "Load.b66414-1-c_cust1" phases=1 bus1=x_b66414_cust1-c.3 kV=0.24 kW=3.0965421 kvar=1.9544377 status=variable model=4 CVRwatts=0.8 CVRvars=3 class=1 NumCust=1 yearly=Other
New "Load.g36578-1-c_cust1" phases=1 bus1=x_g36578_cust1-c.3 kV=0.24 kW=5.1609036 kvar=3.2573962 status=variable model=4 CVRwatts=0.8 CVRvars=3 class=1 NumCust=1 yearly=Other
New "Load.g36581-1-c_cust1" phases=1 bus1=x_g36581_cust1-c.3 kV=0.24 kW=3.0965421 kvar=1.9544377 status=variable model=4 CVRwatts=0.8 CVRvars=3 class=1 NumCust=1 yearly=Other
New "Load.5988528387-1-c_cust1" phases=1 bus1=x_5988528387_cust1-c.3 kV=0.24 kW=5.1609036 kvar=3.2573962 status=variable model=4 CVRwatts=0.8 CVRvars=3 class=1 NumCust=1 yearly=Other
New "Load.g35778-1-c_cust1" phases=1 bus1=x_g35778_cust1-c.3 kV=0.24 kW=2.5804518 kvar=1.6286981 status=variable model=4 CVRwatts=0.8 CVRvars=3 class=1 NumCust=1 yearly=Other
New "Load.g35778-1-c_cust2" phases=1 bus1=x_g35778_cust2-c.3 kV=0.24 kW=2.5804518 kvar=1.6286981 status=variable model=4 CVRwatts=0.8 CVRvars=3 class=1 NumCust=1 yearly=Other
New "Load.b59352-1-c_cust1" phases=1 bus1=x_b59352_cust1-c.3 kV=0.24 kW=4.1287228 kvar=2.605917 status=variable model=4 CVRwatts=0.8 CVRvars=3 class=1 NumCust=1 yearly=Other
New "Load.b59352-1-a_cust1" phases=1 bus1=x_b59352_cust1-a.1 kV=0.24 kW=5.3794144 kvar=3.9091757 status=variable model=4 CVRwatts=0.8 CVRvars=3 class=1 NumCust=1 yearly=Other
New "Load.b56446-1-a_cust1" phases=1 bus1=x_b56446_cust1-a.1 kV=0.24 kW=4.0345608 kvar=2.9318818 status=variable model=4 CVRwatts=0.8 CVRvars=3 class=1 NumCust=1 yearly=Other
New "Load.b35248-1-a_cust1" phases=1 bus1=x_b35248_cust1-a.1 kV=0.24 kW=1.3448536 kvar=0.97729394 status=variable model=4 CVRwatts=0.8 CVRvars=3 class=1 NumCust=1 yearly=Other
New "Load.b41906-1-a_cust1" phases=1 bus1=x_b41906_cust1-a.1 kV=0.24 kW=2.6897072 kvar=1.9545879 status=variable model=4 CVRwatts=0.8 CVRvars=3 class=1 NumCust=1 yearly=Other
New "Load.b10375-1-a_cust1" phases=1 bus1=x_b10375_cust1-a.1 kV=0.24 kW=6.724268 kvar=4.8864697 status=variable model=4 CVRwatts=0.8 CVRvars=3 class=1 NumCust=1 yearly=Other
New "Load.b41240-1-a_cust1" phases=1 bus1=x_b41240_cust1-a.1 kV=0.24 kW=4.0345608 kvar=2.9318818 status=variable model=4 CVRwatts=0.8 CVRvars=3 class=1 NumCust=1 yearly=Other
New "Load.b23405-1-a_cust1" phases=1 bus1=x_b23405_cust1-a.1 kV=0.24 kW=1.3448536 kvar=0.97729394 status=variable model=4 CVRwatts=0.8 CVRvars=3 class=1 NumCust=1 yearly=Other
New "Load.b23406-1-a_cust1" phases=1 bus1=x_b23406_cust1-a.1 kV=0.24 kW=6.724268 kvar=4.8864697 status=variable model=4 CVRwatts=0.8 CVRvars=3 class=1 NumCust=1 yearly=Other
New "Load.b23416-1-a_cust1" phases=1 bus1=x_b23416_cust1-a.1 kV=0.24 kW=2.6897072 kvar=1.9545879 status=variable model=4 CVRwatts=0.8 CVRvars=3 class=1 NumCust=1 yearly=Other
New "Load.5925727418-1-c_cust1" phases=1 bus1=x_5925727418_cust1-c.3 kV=0.24 kW=2.5804518 kvar=1.6286981 status=variable model=4 CVRwatts=0.8 CVRvars=3 class=1 NumCust=1 yearly=Other
New "Load.5925727418-1-c_cust2" phases=1 bus1=x_5925727418_cust2-c.3 kV=0.24 kW=2.5804518 kvar=1.6286981 status=variable model=4 CVRwatts=0.8 CVRvars=3 class=1 NumCust=1 yearly=Other
New "Load.b5177-1-b_cust1" phases=1 bus1=x_b5177_cust1-b.2 kV=0.24 kW=2.8177143 kvar=1.8752234 status=variable model=4 CVRwatts=0.8 CVRvars=3 class=1 NumCust=1 yearly=Other
New "Load.b5171-1-b_cust1" phases=1 bus1=x_b5171_cust1-b.2 kV=0.24 kW=3.52214295 kvar=2.3440292 status=variable model=4 CVRwatts=0.8 CVRvars=3 class=1 NumCust=1 yearly=Other
New "Load.b5171-1-b_cust2" phases=1 bus1=x_b5171_cust2-b.2 kV=0.24 kW=3.52214295 kvar=2.3440292 status=variable model=4 CVRwatts=0.8 CVRvars=3 class=1 NumCust=1 yearly=Other
New "Load.b4997-1-a_cust1" phases=1 bus1=x_b4997_cust1-a.1 kV=0.24 kW=6.724268 kvar=4.8864697 status=variable model=4 CVRwatts=0.8 CVRvars=3 class=1 NumCust=1 yearly=Other
New "Load.b4994-1-a_cust1" phases=1 bus1=x_b4994_cust1-a.1 kV=0.24 kW=4.0345608 kvar=2.9318818 status=variable model=4 CVRwatts=0.8 CVRvars=3 class=1 NumCust=1 yearly=Other
New "Load.b4990-1-b_cust1" phases=1 bus1=x_b4990_cust1-b.2 kV=0.24 kW=4.2265715 kvar=2.812835 status=variable model=4 CVRwatts=0.8 CVRvars=3 class=1 NumCust=1 yearly=Other
New "Load.b4987-1-b_cust1" phases=1 bus1=x_b4987_cust1-b.2 kV=0.24 kW=3.52214295 kvar=2.3440292 status=variable model=4 CVRwatts=0.8 CVRvars=3 class=1 NumCust=1 yearly=Other
New "Load.b4987-1-b_cust2" phases=1 bus1=x_b4987_cust2-b.2 kV=0.24 kW=3.52214295 kvar=2.3440292 status=variable model=4 CVRwatts=0.8 CVRvars=3 class=1 NumCust=1 yearly=Other
New "Load.b4982-1-b_cust1" phases=1 bus1=x_b4982_cust1-b.2 kV=0.24 kW=2.11328575 kvar=1.4064175 status=variable model=4 CVRwatts=0.8 CVRvars=3 class=1 NumCust=1 yearly=Other
New "Load.b4982-1-b_cust2" phases=1 bus1=x_b4982_cust2-b.2 kV=0.24 kW=2.11328575 kvar=1.4064175 status=variable model=4 CVRwatts=0.8 CVRvars=3 class=1 NumCust=1 yearly=Other
New "Load.b36166-1-a_cust1" phases=1 bus1=x_b36166_cust1-a.1 kV=0.24 kW=4.0345608 kvar=2.9318818 status=variable model=4 CVRwatts=0.8 CVRvars=3 class=1 NumCust=1 yearly=Other
New "Load.b4974-1-c_cust1" phases=1 bus1=x_b4974_cust1-c.3 kV=0.24 kW=5.1609036 kvar=3.2573962 status=variable model=4 CVRwatts=0.8 CVRvars=3 class=1 NumCust=1 yearly=Other
New "Load.b4972-1-c_cust1" phases=1 bus1=x_b4972_cust1-c.3 kV=0.24 kW=2.5804518 kvar=1.6286981 status=variable model=4 CVRwatts=0.8 CVRvars=3 class=1 NumCust=1 yearly=Other
New "Load.b4972-1-c_cust2" phases=1 bus1=x_b4972_cust2-c.3 kV=0.24 kW=2.5804518 kvar=1.6286981 status=variable model=4 CVRwatts=0.8 CVRvars=3 class=1 NumCust=1 yearly=Other
New "Load.b4970-1-a_cust1" phases=1 bus1=x_b4970_cust1-a.1 kV=0.24 kW=4.0345608 kvar=2.9318818 status=variable model=4 CVRwatts=0.8 CVRvars=3 class=1 NumCust=1 yearly=Other
New "Load.b4968-1-b_cust1" phases=1 bus1=x_b4968_cust1-b.2 kV=0.24 kW=0.9392381 kvar=0.625074466666667 status=variable model=4 CVRwatts=0.8 CVRvars=3 class=1 NumCust=1 yearly=Other
New "Load.b4968-1-b_cust2" phases=1 bus1=x_b4968_cust2-b.2 kV=0.24 kW=0.9392381 kvar=0.625074466666667 status=variable model=4 CVRwatts=0.8 CVRvars=3 class=1 NumCust=1 yearly=Other
New "Load.b4968-1-b_cust3" phases=1 bus1=x_b4968_cust3-b.2 kV=0.24 kW=0.9392381 kvar=0.625074466666667 status=variable model=4 CVRwatts=0.8 CVRvars=3 class=1 NumCust=1 yearly=Other
New "Load.b4965-1-b_cust1" phases=1 bus1=x_b4965_cust1-b.2 kV=0.24 kW=14.088572 kvar=9.3761168 status=variable model=4 CVRwatts=0.8 CVRvars=3 class=1 NumCust=1 yearly=Other
New "Load.b52452-1-a_cust1" phases=1 bus1=x_b52452_cust1-a.1 kV=0.24 kW=2.6897072 kvar=1.9545879 status=variable model=4 CVRwatts=0.8 CVRvars=3 class=1 NumCust=1 yearly=Other
New "Load.b55975-1-a_cust1" phases=1 bus1=x_b55975_cust1-a.1 kV=0.24 kW=4.0345608 kvar=2.9318818 status=variable model=4 CVRwatts=0.8 CVRvars=3 class=1 NumCust=1 yearly=Other
New "Load.b55976-1-a_cust1" phases=1 bus1=x_b55976_cust1-a.1 kV=0.24 kW=2.0172804 kvar=1.4659409 status=variable model=4 CVRwatts=0.8 CVRvars=3 class=1 NumCust=1 yearly=Other
New "Load.b55976-1-a_cust2" phases=1 bus1=x_b55976_cust2-a.1 kV=0.24 kW=2.0172804 kvar=1.4659409 status=variable model=4 CVRwatts=0.8 CVRvars=3 class=1 NumCust=1 yearly=Other
New "Load.g36931-1-a_cust1" phases=1 bus1=x_g36931_cust1-a.1 kV=0.24 kW=4.0345608 kvar=2.9318818 status=variable model=4 CVRwatts=0.8 CVRvars=3 class=1 NumCust=1 yearly=Other
New "Load.5906427768-1-a_cust1" phases=1 bus1=x_5906427768_cust1-a.1 kV=0.24 kW=6.724268 kvar=4.8864697 status=variable model=4 CVRwatts=0.8 CVRvars=3 class=1 NumCust=1 yearly=Other
New "Load.b59816-1-a_cust1" phases=1 bus1=x_b59816_cust1-a.1 kV=0.24 kW=3.362134 kvar=2.44323485 status=variable model=4 CVRwatts=0.8 CVRvars=3 class=1 NumCust=1 yearly=Other
New "Load.b59816-1-a_cust2" phases=1 bus1=x_b59816_cust2-a.1 kV=0.24 kW=3.362134 kvar=2.44323485 status=variable model=4 CVRwatts=0.8 CVRvars=3 class=1 NumCust=1 yearly=Other
New "Load.b4964-1-b_cust1" phases=1 bus1=x_b4964_cust1-b.2 kV=0.24 kW=4.2265715 kvar=2.812835 status=variable model=4 CVRwatts=0.8 CVRvars=3 class=1 NumCust=1 yearly=Other
New "Load.b4963-1-c_cust1" phases=1 bus1=x_b4963_cust1-c.3 kV=0.24 kW=1.54827105 kvar=0.97721885 status=variable model=4 CVRwatts=0.8 CVRvars=3 class=1 NumCust=1 yearly=Other
New "Load.b4963-1-c_cust2" phases=1 bus1=x_b4963_cust2-c.3 kV=0.24 kW=1.54827105 kvar=0.97721885 status=variable model=4 CVRwatts=0.8 CVRvars=3 class=1 NumCust=1 yearly=Other
New "Load.5880927872-1-c_cust1" phases=1 bus1=x_5880927872_cust1-c.3 kV=0.24 kW=3.0965421 kvar=1.9544377 status=variable model=4 CVRwatts=0.8 CVRvars=3 class=1 NumCust=1 yearly=Other
New "Load.b59172-1-b_cust1" phases=1 bus1=x_b59172_cust1-b.2 kV=0.24 kW=7.0442859 kvar=4.6880584 status=variable model=4 CVRwatts=0.8 CVRvars=3 class=1 NumCust=1 yearly=Other
New "Load.b4931-1-b_cust1" phases=1 bus1=x_b4931_cust1-b.2 kV=0.24 kW=1.40885715 kvar=0.9376117 status=variable model=4 CVRwatts=0.8 CVRvars=3 class=1 NumCust=1 yearly=Other
New "Load.b4931-1-b_cust2" phases=1 bus1=x_b4931_cust2-b.2 kV=0.24 kW=1.40885715 kvar=0.9376117 status=variable model=4 CVRwatts=0.8 CVRvars=3 class=1 NumCust=1 yearly=Other
New "Load.b4910-1-c_cust1" phases=1 bus1=x_b4910_cust1-c.3 kV=0.24 kW=1.0321807 kvar=0.651479233333333 status=variable model=4 CVRwatts=0.8 CVRvars=3 class=1 NumCust=1 yearly=Other
New "Load.b4910-1-c_cust2" phases=1 bus1=x_b4910_cust2-c.3 kV=0.24 kW=1.0321807 kvar=0.651479233333333 status=variable model=4 CVRwatts=0.8 CVRvars=3 class=1 NumCust=1 yearly=Other
New "Load.b4910-1-c_cust3" phases=1 bus1=x_b4910_cust3-c.3 kV=0.24 kW=1.0321807 kvar=0.651479233333333 status=variable model=4 CVRwatts=0.8 CVRvars=3 class=1 NumCust=1 yearly=Other
New "Load.b4904-1-b_cust1" phases=1 bus1=x_b4904_cust1-b.2 kV=0.24 kW=0.8805357375 kvar=0.5860073 status=variable model=4 CVRwatts=0.8 CVRvars=3 class=1 NumCust=1 yearly=Other
New "Load.b4904-1-b_cust2" phases=1 bus1=x_b4904_cust2-b.2 kV=0.24 kW=0.8805357375 kvar=0.5860073 status=variable model=4 CVRwatts=0.8 CVRvars=3 class=1 NumCust=1 yearly=Other
New "Load.b4904-1-b_cust3" phases=1 bus1=x_b4904_cust3-b.2 kV=0.24 kW=0.8805357375 kvar=0.5860073 status=variable model=4 CVRwatts=0.8 CVRvars=3 class=1 NumCust=1 yearly=Other
New "Load.b4904-1-b_cust4" phases=1 bus1=x_b4904_cust4-b.2 kV=0.24 kW=0.8805357375 kvar=0.5860073 status=variable model=4 CVRwatts=0.8 CVRvars=3 class=1 NumCust=1 yearly=Other
New "Load.b4904-1-b_cust5" phases=1 bus1=x_b4904_cust5-b.2 kV=0.24 kW=0.8805357375 kvar=0.5860073 status=variable model=4 CVRwatts=0.8 CVRvars=3 class=1 NumCust=1 yearly=Other
New "Load.b4904-1-b_cust6" phases=1 bus1=x_b4904_cust6-b.2 kV=0.24 kW=0.8805357375 kvar=0.5860073 status=variable model=4 CVRwatts=0.8 CVRvars=3 class=1 NumCust=1 yearly=Other
New "Load.b4904-1-b_cust7" phases=1 bus1=x_b4904_cust7-b.2 kV=0.24 kW=0.8805357375 kvar=0.5860073 status=variable model=4 CVRwatts=0.8 CVRvars=3 class=1 NumCust=1 yearly=Other
New "Load.b4904-1-b_cust8" phases=1 bus1=x_b4904_cust8-b.2 kV=0.24 kW=0.8805357375 kvar=0.5860073 status=variable model=4 CVRwatts=0.8 CVRvars=3 class=1 NumCust=1 yearly=Other
New "Load.b61309-1-a_cust1" phases=1 bus1=x_b61309_cust1-a.1 kV=0.24 kW=4.0345608 kvar=2.9318818 status=variable model=4 CVRwatts=0.8 CVRvars=3 class=1 NumCust=1 yearly=Other
New "Load.b4900-1-a_cust1" phases=1 bus1=x_b4900_cust1-a.1 kV=0.24 kW=4.0345608 kvar=2.9318818 status=variable model=4 CVRwatts=0.8 CVRvars=3 class=1 NumCust=1 yearly=Other
New "Load.b4896-1-c_cust1" phases=1 bus1=x_b4896_cust1-c.3 kV=0.24 kW=0.51609035 kvar=0.325739616666667 status=variable model=4 CVRwatts=0.8 CVRvars=3 class=1 NumCust=1 yearly=Other
New "Load.b4896-1-c_cust2" phases=1 bus1=x_b4896_cust2-c.3 kV=0.24 kW=0.51609035 kvar=0.325739616666667 status=variable model=4 CVRwatts=0.8 CVRvars=3 class=1 NumCust=1 yearly=Other
New "Load.b4896-1-c_cust3" phases=1 bus1=x_b4896_cust3-c.3 kV=0.24 kW=0.51609035 kvar=0.325739616666667 status=variable model=4 CVRwatts=0.8 CVRvars=3 class=1 NumCust=1 yearly=Other
New "Load.b4896-1-c_cust4" phases=1 bus1=x_b4896_cust4-c.3 kV=0.24 kW=0.51609035 kvar=0.325739616666667 status=variable model=4 CVRwatts=0.8 CVRvars=3 class=1 NumCust=1 yearly=Other
New "Load.b4896-1-c_cust5" phases=1 bus1=x_b4896_cust5-c.3 kV=0.24 kW=0.51609035 kvar=0.325739616666667 status=variable model=4 CVRwatts=0.8 CVRvars=3 class=1 NumCust=1 yearly=Other
New "Load.b4896-1-c_cust6" phases=1 bus1=x_b4896_cust6-c.3 kV=0.24 kW=0.51609035 kvar=0.325739616666667 status=variable model=4 CVRwatts=0.8 CVRvars=3 class=1 NumCust=1 yearly=Other
New "Load.b4891-1-c_cust1" phases=1 bus1=x_b4891_cust1-c.3 kV=0.24 kW=1.7203012 kvar=1.08579873333333 status=variable model=4 CVRwatts=0.8 CVRvars=3 class=1 NumCust=1 yearly=Other
New "Load.b4891-1-c_cust2" phases=1 bus1=x_b4891_cust2-c.3 kV=0.24 kW=1.7203012 kvar=1.08579873333333 status=variable model=4 CVRwatts=0.8 CVRvars=3 class=1 NumCust=1 yearly=Other
New "Load.b4891-1-c_cust3" phases=1 bus1=x_b4891_cust3-c.3 kV=0.24 kW=1.7203012 kvar=1.08579873333333 status=variable model=4 CVRwatts=0.8 CVRvars=3 class=1 NumCust=1 yearly=Other
New "Load.b4890-1-c_cust1" phases=1 bus1=x_b4890_cust1-c.3 kV=0.24 kW=3.0965421 kvar=1.9544377 status=variable model=4 CVRwatts=0.8 CVRvars=3 class=1 NumCust=1 yearly=Other
New "Load.b4890-1-b_cust1" phases=1 bus1=x_b4890_cust1-b.2 kV=0.24 kW=4.2265715 kvar=2.812835 status=variable model=4 CVRwatts=0.8 CVRvars=3 class=1 NumCust=1 yearly=Other
New "Load.b4890-1-a_cust1" phases=1 bus1=x_b4890_cust1-a.1 kV=0.24 kW=4.0345608 kvar=2.9318818 status=variable model=4 CVRwatts=0.8 CVRvars=3 class=1 NumCust=1 yearly=Other
New "Load.b4889-1-b_cust1" phases=1 bus1=x_b4889_cust1-b.2 kV=0.24 kW=1.056642875 kvar=0.70320875 status=variable model=4 CVRwatts=0.8 CVRvars=3 class=1 NumCust=1 yearly=Other
New "Load.b4889-1-b_cust2" phases=1 bus1=x_b4889_cust2-b.2 kV=0.24 kW=1.056642875 kvar=0.70320875 status=variable model=4 CVRwatts=0.8 CVRvars=3 class=1 NumCust=1 yearly=Other