New "Load.res_10548985-s-a" phases=1 bus1=ld_10548985.1 kV=0.24 kW=14.3974937410526 pf=0.97 status=variable Vminpu=0.85 Vmaxpu=1.15 model=4 CVRwatts=0.8 CVRvars=3 class=1 xfkVA=12.2667578947368 NumCust=1 yearly=K21_A allocationfactor=1.21
New "Load.res_34084602-s-c" phases=1 bus1=ld_34084602.3 kV=0.24 kW=34.4935122174736 pf=0.97 status=variable Vminpu=0.85 Vmaxpu=1.15 model=4 CVRwatts=0.8 CVRvars=3 class=1 xfkVA=29.2918631578947 NumCust=6 yearly=K21_C allocationfactor=1.214
New "Load.com_10548901-s-a" phases=3 bus1=ld_10548901.1.2.3 kV=0.48 kW=5.07611535786667 pf=0.92 status=variable Vminpu=0.85 Vmaxpu=1.15 model=4 CVRwatts=0.8 CVRvars=3 class=2 xfkVA=4.54490666666667 NumCust=1 yearly=K21_ABC allocationfactor=1.214
New "Load.res_10548988-s-b" phases=1 bus1=ld_10548988.2 kV=0.24 kW=16.3057977147369 pf=0.97 status=variable Vminpu=0.85 Vmaxpu=1.15 model=4 CVRwatts=0.8 CVRvars=3 class=1 xfkVA=13.8127368421053 NumCust=3 yearly=K21_B allocationfactor=1.217
New "Load.res_10548989-s-b" phases=1 bus1=ld_10548989.2 kV=0.24 kW=12.6386738738947 pf=0.97 status=variable Vminpu=0.85 Vmaxpu=1.15 model=4 CVRwatts=0.8 CVRvars=3 class=1 xfkVA=10.7062947368421 NumCust=2 yearly=K21_B allocationfactor=1.217
New "Load.res_20350796-s-b" phases=1 bus1=ld_20350796.2 kV=0.24 kW=25.6100471084211 pf=0.97 status=variable Vminpu=0.85 Vmaxpu=1.15 model=4 CVRwatts=0.8 CVRvars=3 class=1 xfkVA=21.6944210526316 NumCust=4 yearly=K21_B allocationfactor=1.217
New "Load.res_34085371-s-b" phases=1 bus1=ld_34085371.2 kV=0.24 kW=19.0518659789474 pf=0.97 status=variable Vminpu=0.85 Vmaxpu=1.15 model=4 CVRwatts=0.8 CVRvars=3 class=1 xfkVA=16.1389473684211 NumCust=5 yearly=K21_B allocationfactor=1.217
New "Load.res_10548992-s-b" phases=1 bus1=ld_10548992.2 kV=0.24 kW=22.7314781613684 pf=0.97 status=variable Vminpu=0.85 Vmaxpu=1.15 model=4 CVRwatts=0.8 CVRvars=3 class=1 xfkVA=19.2559684210526 NumCust=6 yearly=K21_B allocationfactor=1.217
New "Load.res_10548986-s-a" phases=1 bus1=ld_10548986.1 kV=0.24 kW=2.42197072063158 pf=0.97 status=variable Vminpu=0.85 Vmaxpu=1.15 model=4 CVRwatts=0.8 CVRvars=3 class=1 xfkVA=2.06353473684211 NumCust=4 yearly=K21_A allocationfactor=1.21
New "Load.res_10548911-s-a" phases=1 bus1=ld_10548911.1 kV=0.24 kW=22.3473097736842 pf=0.97 status=variable Vminpu=0.85 Vmaxpu=1.15 model=4 CVRwatts=0.8 CVRvars=3 class=1 xfkVA=19.0400526315789 NumCust=2 yearly=K21_A allocationfactor=1.21
New "Load.com_34095651-s-a" phases=1 bus1=ld_34095651.1 kV=0.24 kW=0.410673085777777 pf=0.92 status=variable Vminpu=0.85 Vmaxpu=1.15 model=4 CVRwatts=0.8 CVRvars=3 class=2 xfkVA=0.368912222222222 NumCust=1 yearly=K21_A allocationfactor=1.21
New "Load.res_34090003-s-c" phases=1 bus1=ld_34090003.3 kV=0.24 kW=15.1014470625264 pf=0.97 status=variable Vminpu=0.85 Vmaxpu=1.15 model=4 CVRwatts=0.8 CVRvars=3 class=1 xfkVA=12.8241368421053 NumCust=2 yearly=K21_C allocationfactor=1.214
New "Load.res_10548962-s-b" phases=1 bus1=ld_10548962.2 kV=0.24 kW=31.2057312491578 pf=0.97 status=variable Vminpu=0.85 Vmaxpu=1.15 model=4 CVRwatts=0.8 CVRvars=3 class=1 xfkVA=26.4345578947368 NumCust=1 yearly=K21_B allocationfactor=1.217
New "Load.com_34090004-s-c" phases=3 bus1=ld_34090004.1.2.3 kV=0.48 kW=0.615356204799999 pf=0.92 status=variable Vminpu=0.85 Vmaxpu=1.15 model=4 CVRwatts=0.8 CVRvars=3 class=2 xfkVA=0.550959999999999 NumCust=2 yearly=K21_ABC allocationfactor=1.214
New "Load.res_10548948-s-b" phases=1 bus1=ld_10548948.2 kV=0.24 kW=0.0057607912 pf=0.97 status=variable Vminpu=0.85 Vmaxpu=1.15 model=4 CVRwatts=0.8 CVRvars=3 class=1 xfkVA=0.00488 NumCust=1 yearly=K21_B allocationfactor=1.217
New "Load.res_34085352-s-b" phases=1 bus1=ld_34085352.2 kV=0.24 kW=7.09066910294737 pf=0.97 status=variable Vminpu=0.85 Vmaxpu=1.15 model=4 CVRwatts=0.8 CVRvars=3 class=1 xfkVA=6.00654736842105 NumCust=1 yearly=K21_B allocationfactor=1.217
New "Load.res_34090753-s-a" phases=1 bus1=ld_34090753.1 kV=0.24 kW=4.166494156 pf=0.97 status=variable Vminpu=0.85 Vmaxpu=1.15 model=4 CVRwatts=0.8 CVRvars=3 class=1 xfkVA=3.54988 NumCust=1 yearly=K21_A allocationfactor=1.21
New "Load.res_10548945-s-c" phases=1 bus1=ld_10548945.3 kV=0.24 kW=15.296305563579 pf=0.97 status=variable Vminpu=0.85 Vmaxpu=1.15 model=4 CVRwatts=0.8 CVRvars=3 class=1 xfkVA=12.9896105263158 NumCust=1 yearly=K21_C allocationfactor=1.214
New "Load.com_34084591-s-b" phases=1 bus1=ld_34084591.2 kV=0.24 kW=15.5199520622223 pf=0.92 status=variable Vminpu=0.85 Vmaxpu=1.15 model=4 CVRwatts=0.8 CVRvars=3 class=2 xfkVA=13.8615555555556 NumCust=2 yearly=K21_B allocationfactor=1.217
New "Load.res_34085402-s-b" phases=1 bus1=ld_34085402.2 kV=0.24 kW=4.14005174464211 pf=0.97 status=variable Vminpu=0.85 Vmaxpu=1.15 model=4 CVRwatts=0.8 CVRvars=3 class=1 xfkVA=3.50706210526316 NumCust=2 yearly=K21_B allocationfactor=1.217
New "Load.res_20014991-s-c" phases=1 bus1=ld_20014991.3 kV=0.24 kW=1.89817343050526 pf=0.97 status=variable Vminpu=0.85 Vmaxpu=1.15 model=4 CVRwatts=0.8 CVRvars=3 class=1 xfkVA=1.61192736842105 NumCust=1 yearly=K21_C allocationfactor=1.214
New "Load.com_34090007-s-a" phases=3 bus1=ld_34090007.1.2.3 kV=0.48 kW=16.9740667429333 pf=0.92 status=variable Vminpu=0.85 Vmaxpu=1.15 model=4 CVRwatts=0.8 CVRvars=3 class=2 xfkVA=15.1977533333333 NumCust=1 yearly=K21_ABC allocationfactor=1.214
New "Load.com_10548933-s-a" phases=3 bus1=ld_10548933.1.2.3 kV=0.48 kW=69.54923448 pf=0.92 status=variable Vminpu=0.85 Vmaxpu=1.15 model=4 CVRwatts=0.8 CVRvars=3 class=2 xfkVA=62.271 NumCust=2 yearly=K21_ABC allocationfactor=1.214
New "Load.res_10548947-s-a" phases=1 bus1=ld_10548947.1 kV=0.24 kW=10.6410162366316 pf=0.97 status=variable Vminpu=0.85 Vmaxpu=1.15 model=4 CVRwatts=0.8 CVRvars=3 class=1 xfkVA=9.06621473684211 NumCust=2 yearly=K21_A allocationfactor=1.21
New "Load.res_20014992-s-a" phases=1 bus1=ld_20014992.1 kV=0.24 kW=8.83406925789474 pf=0.97 status=variable Vminpu=0.85 Vmaxpu=1.15 model=4 CVRwatts=0.8 CVRvars=3 class=1 xfkVA=7.52668421052632 NumCust=2 yearly=K21_A allocationfactor=1.21
New "Load.res_10559735-s-c" phases=1 bus1=ld_10559735.3 kV=0.24 kW=0.287366706736842 pf=0.97 status=variable Vminpu=0.85 Vmaxpu=1.15 model=4 CVRwatts=0.8 CVRvars=3 class=1 xfkVA=0.244031578947368 NumCust=1 yearly=K21_C allocationfactor=1.214
New "Load.com_10558507-s-a" phases=3 bus1=ld_10558507.1.2.3 kV=0.48 kW=49.0296172853333 pf=0.92 status=variable Vminpu=0.85 Vmaxpu=1.15 model=4 CVRwatts=0.8 CVRvars=3 class=2 xfkVA=43.8987333333333 NumCust=1 yearly=K21_ABC allocationfactor=1.214
New "Load.res_34090086-s-c" phases=1 bus1=ld_34090086.3 kV=0.24 kW=21.509428368421 pf=0.97 status=variable Vminpu=0.85 Vmaxpu=1.15 model=4 CVRwatts=0.8 CVRvars=3 class=1 xfkVA=18.2657894736842 NumCust=3 yearly=K21_C allocationfactor=1.214
New "Load.res_34086299-s-a" phases=1 bus1=ld_34086299.1 kV=0.24 kW=8.79311083431578 pf=0.97 status=variable Vminpu=0.85 Vmaxpu=1.15 model=4 CVRwatts=0.8 CVRvars=3 class=1 xfkVA=7.49178736842105 NumCust=1 yearly=K21_A allocationfactor=1.21
New "Load.res_34086318-s-b" phases=1 bus1=ld_34086318.2 kV=0.24 kW=8.71974778818947 pf=0.97 status=variable Vminpu=0.85 Vmaxpu=1.15 model=4 CVRwatts=0.8 CVRvars=3 class=1 xfkVA=7.38654947368421 NumCust=1 yearly=K21_B allocationfactor=1.217
New "Load.res_34086324-s-c" phases=1 bus1=ld_34086324.3 kV=0.24 kW=18.4662269677895 pf=0.97 status=variable Vminpu=0.85 Vmaxpu=1.15 model=4 CVRwatts=0.8 CVRvars=3 class=1 xfkVA=15.6815052631579 NumCust=2 yearly=K21_C allocationfactor=1.214
New "Load.res_34086797-s-b" phases=1 bus1=ld_34086797.2 kV=0.24 kW=8.58470967315789 pf=0.97 status=variable Vminpu=0.85 Vmaxpu=1.15 model=4 CVRwatts=0.8 CVRvars=3 class=1 xfkVA=7.27215789473684 NumCust=4 yearly=K21_B allocationfactor=1.217
New "Load.res_10558471-s-c" phases=1 bus1=ld_10558471.3 kV=0.24 kW=11.1124989353895 pf=0.97 status=variable Vminpu=0.85 Vmaxpu=1.15 model=4 CVRwatts=0.8 CVRvars=3 class=1 xfkVA=9.43672526315789 NumCust=1 yearly=K21_C allocationfactor=1.214
New "Load.res_20028685-s-b" phases=1 bus1=ld_20028685.2 kV=0.24 kW=28.4070628357895 pf=0.97 status=variable Vminpu=0.85 Vmaxpu=1.15 model=4 CVRwatts=0.8 CVRvars=3 class=1 xfkVA=24.0637894736842 NumCust=1 yearly=K21_B allocationfactor=1.217
New "Load.res_34087254-s-c" phases=1 bus1=ld_34087254.3 kV=0.24 kW=14.0151357103158 pf=0.97 status=variable Vminpu=0.85 Vmaxpu=1.15 model=4 CVRwatts=0.8 CVRvars=3 class=1 xfkVA=11.9016421052632 NumCust=3 yearly=K21_C allocationfactor=1.214
New "Load.res_34087256-s-b" phases=1 bus1=ld_34087256.2 kV=0.24 kW=6.02946326827369 pf=0.97 status=variable Vminpu=0.85 Vmaxpu=1.15 model=4 CVRwatts=0.8 CVRvars=3 class=1 xfkVA=5.10759368421053 NumCust=1 yearly=K21_B allocationfactor=1.217
New "Load.res_34086796-s-b" phases=1 bus1=ld_34086796.2 kV=0.24 kW=1.68432437462105 pf=0.97 status=variable Vminpu=0.85 Vmaxpu=1.15 model=4 CVRwatts=0.8 CVRvars=3 class=1 xfkVA=1.42680105263158 NumCust=1 yearly=K21_B allocationfactor=1.217
New "Load.res_10558477-s-c" phases=1 bus1=ld_10558477.3 kV=0.24 kW=4.8391695640421 pf=0.97 status=variable Vminpu=0.85 Vmaxpu=1.15 model=4 CVRwatts=0.8 CVRvars=3 class=1 xfkVA=4.10941894736842 NumCust=1 yearly=K21_C allocationfactor=1.214
New "Load.com_10540312-s-a" phases=3 bus1=ld_10540312.1.2.3 kV=0.48 kW=443.921453786668 pf=0.92 status=variable Vminpu=0.85 Vmaxpu=1.15 model=4 CVRwatts=0.8 CVRvars=3 class=2 xfkVA=397.465666666668 NumCust=1 yearly=K21_ABC allocationfactor=1.214
New "Load.com_10540314-s-b" phases=3 bus1=ld_10540314.1.2.3 kV=0.48 kW=28.1159611037333 pf=0.92 status=variable Vminpu=0.85 Vmaxpu=1.15 model=4 CVRwatts=0.8 CVRvars=3 class=2 xfkVA=25.1736633333333 NumCust=1 yearly=K21_ABC allocationfactor=1.214
New "Load.com_10580150-s-a" phases=3 bus1=ld_10580150.1.2.3 kV=0.48 kW=444.365972026666 pf=0.92 status=variable Vminpu=0.85 Vmaxpu=1.15 model=4 CVRwatts=0.8 CVRvars=3 class=2 xfkVA=397.863666666666 NumCust=1 yearly=K21_ABC allocationfactor=1.214
New "Load.com_20396677-s-a" phases=3 bus1=ld_20396677.1.2.3 kV=0.48 kW=23.7653709938667 pf=0.92 status=variable Vminpu=0.85 Vmaxpu=1.15 model=4 CVRwatts=0.8 CVRvars=3 class=2 xfkVA=21.2783566666667 NumCust=1 yearly=K21_ABC allocationfactor=1.214
New "Load.res_34054927-s-a" phases=1 bus1=ld_34054927.1 kV=0.24 kW=16.3242767252631 pf=0.97 status=variable Vminpu=0.85 Vmaxpu=1.15 model=4 CVRwatts=0.8 CVRvars=3 class=1 xfkVA=13.9083894736842 NumCust=1 yearly=K21_A allocationfactor=1.21
New "Load.res_34057775-s-a" phases=1 bus1=ld_34057775.1 kV=0.24 kW=17.9717561736842 pf=0.97 status=variable Vminpu=0.85 Vmaxpu=1.15 model=4 CVRwatts=0.8 CVRvars=3 class=1 xfkVA=15.3120526315789 NumCust=2 yearly=K21_A allocationfactor=1.21
New "Load.res_34054962-s-a" phases=1 bus1=ld_34054962.1 kV=0.24 kW=18.8454584536842 pf=0.97 status=variable Vminpu=0.85 Vmaxpu=1.15 model=4 CVRwatts=0.8 CVRvars=3 class=1 xfkVA=16.0564526315789 NumCust=2 yearly=K21_A allocationfactor=1.21
New "Load.res_34054976-s-a" phases=1 bus1=ld_34054976.1 kV=0.24 kW=30.9076474821053 pf=0.97 status=variable Vminpu=0.85 Vmaxpu=1.15 model=4 CVRwatts=0.8 CVRvars=3 class=1 xfkVA=26.3335157894737 NumCust=2 yearly=K21_A allocationfactor=1.21
New "Load.res_34054992-s-a" phases=1 bus1=ld_34054992.1 kV=0.24 kW=18.436640211579 pf=0.97 status=variable Vminpu=0.85 Vmaxpu=1.15 model=4 CVRwatts=0.8 CVRvars=3 class=1 xfkVA=15.7081368421053 NumCust=2 yearly=K21_A allocationfactor=1.21
New "Load.res_34055522-s-a" phases=1 bus1=ld_34055522.1 kV=0.24 kW=23.06343974 pf=0.97 status=variable Vminpu=0.85 Vmaxpu=1.15 model=4 CVRwatts=0.8 CVRvars=3 class=1 xfkVA=19.6502 NumCust=2 yearly=K21_A allocationfactor=1.21
New "Load.res_20344333-s-a" phases=1 bus1=ld_20344333.1 kV=0.24 kW=10.8152402646316 pf=0.97 status=variable Vminpu=0.85 Vmaxpu=1.15 model=4 CVRwatts=0.8 CVRvars=3 class=1 xfkVA=9.21465473684211 NumCust=1 yearly=K21_A allocationfactor=1.21
New "Load.res_34054980-s-a" phases=1 bus1=ld_34054980.1 kV=0.24 kW=11.0626241023158 pf=0.97 status=variable Vminpu=0.85 Vmaxpu=1.15 model=4 CVRwatts=0.8 CVRvars=3 class=1 xfkVA=9.42542736842105 NumCust=1 yearly=K21_A allocationfactor=1.21
New "Load.res_34054979-s-a" phases=1 bus1=ld_34054979.1 kV=0.24 kW=15.5663259747369 pf=0.97 status=variable Vminpu=0.85 Vmaxpu=1.15 model=4 CVRwatts=0.8 CVRvars=3 class=1 xfkVA=13.2626105263158 NumCust=1 yearly=K21_A allocationfactor=1.21
New "Load.res_34054978-s-a" phases=1 bus1=ld_34054978.1 kV=0.24 kW=14.1133718578947 pf=0.97 status=variable Vminpu=0.85 Vmaxpu=1.15 model=4 CVRwatts=0.8 CVRvars=3 class=1 xfkVA=12.0246842105263 NumCust=2 yearly=K21_A allocationfactor=1.21
New "Load.res_20344331-s-c" phases=1 bus1=ld_20344331.3 kV=0.24 kW=5.81631553157895 pf=0.97 status=variable Vminpu=0.85 Vmaxpu=1.15 model=4 CVRwatts=0.8 CVRvars=3 class=1 xfkVA=4.93921052631579 NumCust=1 yearly=K21_C allocationfactor=1.214
New "Load.res_34057797-s-c" phases=1 bus1=ld_34057797.3 kV=0.24 kW=19.0062031778947 pf=0.97 status=variable Vminpu=0.85 Vmaxpu=1.15 model=4 CVRwatts=0.8 CVRvars=3 class=1 xfkVA=16.1400526315789 NumCust=2 yearly=K21_C allocationfactor=1.214
New "Load.res_34054972-s-c" phases=1 bus1=ld_34054972.3 kV=0.24 kW=7.84512968728421 pf=0.97 status=variable Vminpu=0.85 Vmaxpu=1.15 model=4 CVRwatts=0.8 CVRvars=3 class=1 xfkVA=6.66207789473684 NumCust=1 yearly=K21_C allocationfactor=1.214
New "Load.res_34054971-s-c" phases=1 bus1=ld_34054971.3 kV=0.24 kW=16.2736225901053 pf=0.97 status=variable Vminpu=0.85 Vmaxpu=1.15 model=4 CVRwatts=0.8 CVRvars=3 class=1 xfkVA=13.8195473684211 NumCust=2 yearly=K21_C allocationfactor=1.214
New "Load.res_20344332-s-b" phases=1 bus1=ld_20344332.2 kV=0.24 kW=15.8286933615789 pf=0.97 status=variable Vminpu=0.85 Vmaxpu=1.15 model=4 CVRwatts=0.8 CVRvars=3 class=1 xfkVA=13.4085789473684 NumCust=2 yearly=K21_B allocationfactor=1.217
New "Load.res_34054975-s-b" phases=1 bus1=ld_34054975.2 kV=0.24 kW=1.2857188786 pf=0.97 status=variable Vminpu=0.85 Vmaxpu=1.15 model=4 CVRwatts=0.8 CVRvars=3 class=1 xfkVA=1.08914 NumCust=1 yearly=K21_B allocationfactor=1.217
New "Load.res_34057798-s-b" phases=1 bus1=ld_34057798.2 kV=0.24 kW=23.4234938255789 pf=0.97 status=variable Vminpu=0.85 Vmaxpu=1.15 model=4 CVRwatts=0.8 CVRvars=3 class=1 xfkVA=19.8421789473684 NumCust=2 yearly=K21_B allocationfactor=1.217
New "Load.res_34054974-s-b" phases=1 bus1=ld_34054974.2 kV=0.24 kW=10.0395033000421 pf=0.97 status=variable Vminpu=0.85 Vmaxpu=1.15 model=4 CVRwatts=0.8 CVRvars=3 class=1 xfkVA=8.50452210526316 NumCust=1 yearly=K21_B allocationfactor=1.217
New "Load.res_34086794-s-b" phases=1 bus1=ld_34086794.2 kV=0.24 kW=1.38518820862105 pf=0.97 status=variable Vminpu=0.85 Vmaxpu=1.15 model=4 CVRwatts=0.8 CVRvars=3 class=1 xfkVA=1.17340105263158 NumCust=1 yearly=K21_B allocationfactor=1.217
New "Load.res_20344372-s-b" phases=1 bus1=ld_20344372.2 kV=0.24 kW=19.9292061469474 pf=0.97 status=variable Vminpu=0.85 Vmaxpu=1.15 model=4 CVRwatts=0.8 CVRvars=3 class=1 xfkVA=16.8821473684211 NumCust=1 yearly=K21_B allocationfactor=1.217
New "Load.res_34054965-s-b" phases=1 bus1=ld_34054965.2 kV=0.24 kW=8.6544791174 pf=0.97 status=variable Vminpu=0.85 Vmaxpu=1.15 model=4 CVRwatts=0.8 CVRvars=3 class=1 xfkVA=7.33126 NumCust=1 yearly=K21_B allocationfactor=1.217
New "Load.res_10558481-s-a" phases=1 bus1=ld_10558481.1 kV=0.24 kW=2.98450165663158 pf=0.97 status=variable Vminpu=0.85 Vmaxpu=1.15 model=4 CVRwatts=0.8 CVRvars=3 class=1 xfkVA=2.54281473684211 NumCust=1 yearly=K21_A allocationfactor=1.21
New "Load.res_10558483-s-b" phases=1 bus1=ld_10558483.2 kV=0.24 kW=10.6041353949053 pf=0.97 status=variable Vminpu=0.85 Vmaxpu=1.15 model=4 CVRwatts=0.8 CVRvars=3 class=1 xfkVA=8.98282526315789 NumCust=2 yearly=K21_B allocationfactor=1.217
New "Load.res_34097396-s-c" phases=1 bus1=ld_34097396.3 kV=0.24 kW=17.0776742141053 pf=0.97 status=variable Vminpu=0.85 Vmaxpu=1.15 model=4 CVRwatts=0.8 CVRvars=3 class=1 xfkVA=14.5023473684211 NumCust=3 yearly=K21_C allocationfactor=1.214
New "Load.res_10558509-s-b" phases=1 bus1=ld_10558509.2 kV=0.24 kW=6.75388773215789 pf=0.97 status=variable Vminpu=0.85 Vmaxpu=1.15 model=4 CVRwatts=0.8 CVRvars=3 class=1 xfkVA=5.72125789473684 NumCust=1 yearly=K21_B allocationfactor=1.217
New "Load.res_10558551-s-a" phases=1 bus1=ld_10558551.1 kV=0.24 kW=13.1990595578947 pf=0.97 status=variable Vminpu=0.85 Vmaxpu=1.15 model=4 CVRwatts=0.8 CVRvars=3 class=1 xfkVA=11.2456842105263 NumCust=2 yearly=K21_A allocationfactor=1.21
New "Load.res_10558553-s-a" phases=1 bus1=ld_10558553.1 kV=0.24 kW=13.9793229631579 pf=0.97 status=variable Vminpu=0.85 Vmaxpu=1.15 model=4 CVRwatts=0.8 CVRvars=3 class=1 xfkVA=11.9104736842105 NumCust=2 yearly=K21_A allocationfactor=1.21
New "Load.res_10558550-s-a" phases=1 bus1=ld_10558550.1 kV=0.24 kW=11.6525553736842 pf=0.97 status=variable Vminpu=0.85 Vmaxpu=1.15 model=4 CVRwatts=0.8 CVRvars=3 class=1 xfkVA=9.92805263157895 NumCust=2 yearly=K21_A allocationfactor=1.21
New "Load.res_34096116-s-b" phases=1 bus1=ld_34096116.2 kV=0.24 kW=3.89322246923158 pf=0.97 status=variable Vminpu=0.85 Vmaxpu=1.15 model=4 CVRwatts=0.8 CVRvars=3 class=1 xfkVA=3.29797157894737 NumCust=2 yearly=K21_B allocationfactor=1.217
New "Load.res_34086801-s-c" phases=1 bus1=ld_34086801.3 kV=0.24 kW=0.571861357831579 pf=0.97 status=variable Vminpu=0.85 Vmaxpu=1.15 model=4 CVRwatts=0.8 CVRvars=3 class=1 xfkVA=0.485624210526316 NumCust=1 yearly=K21_C allocationfactor=1.214
New "Load.res_10558562-s-c" phases=1 bus1=ld_10558562.3 kV=0.24 kW=10.8883509208421 pf=0.97 status=variable Vminpu=0.85 Vmaxpu=1.15 model=4 CVRwatts=0.8 CVRvars=3 class=1 xfkVA=9.24637894736842 NumCust=1 yearly=K21_C allocationfactor=1.214
New "Load.res_34096115-s-b" phases=1 bus1=ld_34096115.2 kV=0.24 kW=0.8067232562 pf=0.97 status=variable Vminpu=0.85 Vmaxpu=1.15 model=4 CVRwatts=0.8 CVRvars=3 class=1 xfkVA=0.68338 NumCust=1 yearly=K21_B allocationfactor=1.217
New "Load.res_10558545-s-b" phases=1 bus1=ld_10558545.2 kV=0.24 kW=3.91866389266316 pf=0.97 status=variable Vminpu=0.85 Vmaxpu=1.15 model=4 CVRwatts=0.8 CVRvars=3 class=1 xfkVA=3.31952315789474 NumCust=1 yearly=K21_B allocationfactor=1.217
New "Load.res_34096113-s-b" phases=1 bus1=ld_34096113.2 kV=0.24 kW=7.61280852829474 pf=0.97 status=variable Vminpu=0.85 Vmaxpu=1.15 model=4 CVRwatts=0.8 CVRvars=3 class=1 xfkVA=6.44885473684211 NumCust=1 yearly=K21_B allocationfactor=1.217
New "Load.res_10558544-s-b" phases=1 bus1=ld_10558544.2 kV=0.24 kW=28.0311202625264 pf=0.97 status=variable Vminpu=0.85 Vmaxpu=1.15 model=4 CVRwatts=0.8 CVRvars=3 class=1 xfkVA=23.7453263157895 NumCust=1 yearly=K21_B allocationfactor=1.217
New "Load.com_10526890-s-a" phases=3 bus1=ld_10526890.1.2.3 kV=0.48 kW=1.9003489824 pf=0.92 status=variable Vminpu=0.85 Vmaxpu=1.15 model=4 CVRwatts=0.8 CVRvars=3 class=2 xfkVA=1.70148 NumCust=1 yearly=K21_ABC allocationfactor=1.214
New "Load.res_34086410-s-b" phases=1 bus1=ld_34086410.2 kV=0.24 kW=3.34169878385264 pf=0.97 status=variable Vminpu=0.85 Vmaxpu=1.15 model=4 CVRwatts=0.8 CVRvars=3 class=1 xfkVA=2.83077263157895 NumCust=1 yearly=K21_B allocationfactor=1.217
New "Load.res_10559390-s-a" phases=1 bus1=ld_10559390.1 kV=0.24 kW=12.6591575578947 pf=0.97 status=variable Vminpu=0.85 Vmaxpu=1.15 model=4 CVRwatts=0.8 CVRvars=3 class=1 xfkVA=10.7856842105263 NumCust=1 yearly=K21_A allocationfactor=1.21
New "Load.res_34086402-s-a" phases=1 bus1=ld_34086402.1 kV=0.24 kW=0.612581210421053 pf=0.97 status=variable Vminpu=0.85 Vmaxpu=1.15 model=4 CVRwatts=0.8 CVRvars=3 class=1 xfkVA=0.521923157894737 NumCust=1 yearly=K21_A allocationfactor=1.21
New "Load.res_10559057-s-a" phases=1 bus1=ld_10559057.1 kV=0.24 kW=17.713641011579 pf=0.97 status=variable Vminpu=0.85 Vmaxpu=1.15 model=4 CVRwatts=0.8 CVRvars=3 class=1 xfkVA=15.0921368421053 NumCust=3 yearly=K21_A allocationfactor=1.21
New "Load.res_10559090-s-a" phases=1 bus1=ld_10559090.1 kV=0.24 kW=18.193684311579 pf=0.97 status=variable Vminpu=0.85 Vmaxpu=1.15 model=4 CVRwatts=0.8 CVRvars=3 class=1 xfkVA=15.5011368421053 NumCust=2 yearly=K21_A allocationfactor=1.21
New "Load.res_34086306-s-a" phases=1 bus1=ld_34086306.1 kV=0.24 kW=11.9462571197894 pf=0.97 status=variable Vminpu=0.85 Vmaxpu=1.15 model=4 CVRwatts=0.8 CVRvars=3 class=1 xfkVA=10.1782884210526 NumCust=3 yearly=K21_A allocationfactor=1.21
New "Load.res_10559387-s-a" phases=1 bus1=ld_10559387.1 kV=0.24 kW=7.66506282242106 pf=0.97 status=variable Vminpu=0.85 Vmaxpu=1.15 model=4 CVRwatts=0.8 CVRvars=3 class=1 xfkVA=6.53068315789474 NumCust=1 yearly=K21_A allocationfactor=1.21
New "Load.res_34086307-s-a" phases=1 bus1=ld_34086307.1 kV=0.24 kW=6.46325950252631 pf=0.97 status=variable Vminpu=0.85 Vmaxpu=1.15 model=4 CVRwatts=0.8 CVRvars=3 class=1 xfkVA=5.50673894736842 NumCust=1 yearly=K21_A allocationfactor=1.21
New "Load.res_10559392-s-a" phases=1 bus1=ld_10559392.1 kV=0.24 kW=11.1771302743158 pf=0.97 status=variable Vminpu=0.85 Vmaxpu=1.15 model=4 CVRwatts=0.8 CVRvars=3 class=1 xfkVA=9.52298736842105 NumCust=3 yearly=K21_A allocationfactor=1.21
New "Load.res_34086309-s-a" phases=1 bus1=ld_34086309.1 kV=0.24 kW=11.8207564674737 pf=0.97 status=variable Vminpu=0.85 Vmaxpu=1.15 model=4 CVRwatts=0.8 CVRvars=3 class=1 xfkVA=10.0713610526316 NumCust=1 yearly=K21_A allocationfactor=1.21
New "Load.res_10559393-s-a" phases=1 bus1=ld_10559393.1 kV=0.24 kW=10.7493648077895 pf=0.97 status=variable Vminpu=0.85 Vmaxpu=1.15 model=4 CVRwatts=0.8 CVRvars=3 class=1 xfkVA=9.15852842105263 NumCust=1 yearly=K21_A allocationfactor=1.21
New "Load.res_10559275-s-a" phases=1 bus1=ld_10559275.1 kV=0.24 kW=7.43923800052631 pf=0.97 status=variable Vminpu=0.85 Vmaxpu=1.15 model=4 CVRwatts=0.8 CVRvars=3 class=1 xfkVA=6.33827894736842 NumCust=1 yearly=K21_A allocationfactor=1.21
New "Load.res_10559451-s-a" phases=1 bus1=ld_10559451.1 kV=0.24 kW=7.76369809947368 pf=0.97 status=variable Vminpu=0.85 Vmaxpu=1.15 model=4 CVRwatts=0.8 CVRvars=3 class=1 xfkVA=6.61472105263158 NumCust=1 yearly=K21_A allocationfactor=1.21
New "Load.res_10559487-s-a" phases=1 bus1=ld_10559487.1 kV=0.24 kW=22.5879182736843 pf=0.97 status=variable Vminpu=0.85 Vmaxpu=1.15 model=4 CVRwatts=0.8 CVRvars=3 class=1 xfkVA=19.245052631579 NumCust=2 yearly=K21_A allocationfactor=1.21
New "Load.res_34095281-s-a" phases=1 bus1=ld_34095281.1 kV=0.24 kW=13.1990595578947 pf=0.97 status=variable Vminpu=0.85 Vmaxpu=1.15 model=4 CVRwatts=0.8 CVRvars=3 class=1 xfkVA=11.2456842105263 NumCust=1 yearly=K21_A allocationfactor=1.21
New "Load.res_10559407-s-a" phases=1 bus1=ld_10559407.1 kV=0.24 kW=3.79229759294737 pf=0.97 status=variable Vminpu=0.85 Vmaxpu=1.15 model=4 CVRwatts=0.8 CVRvars=3 class=1 xfkVA=3.23106210526316 NumCust=1 yearly=K21_A allocationfactor=1.21
New "Load.res_34097297-s-a" phases=1 bus1=ld_34097297.1 kV=0.24 kW=9.15498601831578 pf=0.97 status=variable Vminpu=0.85 Vmaxpu=1.15 model=4 CVRwatts=0.8 CVRvars=3 class=1 xfkVA=7.80010736842105 NumCust=1 yearly=K21_A allocationfactor=1.21
New "Load.res_34096668-s-a" phases=1 bus1=ld_34096668.1 kV=0.24 kW=5.05532357578947 pf=0.97 status=variable Vminpu=0.85 Vmaxpu=1.15 model=4 CVRwatts=0.8 CVRvars=3 class=1 xfkVA=4.30716842105263 NumCust=1 yearly=K21_A allocationfactor=1.21
New "Load.res_10552942-s-a" phases=1 bus1=ld_10552942.1 kV=0.24 kW=3.38217839705263 pf=0.97 status=variable Vminpu=0.85 Vmaxpu=1.15 model=4 CVRwatts=0.8 CVRvars=3 class=1 xfkVA=2.88163789473684 NumCust=1 yearly=K21_A allocationfactor=1.21
New "Load.res_10559398-s-a" phases=1 bus1=ld_10559398.1 kV=0.24 kW=9.72058587094737 pf=0.97 status=variable Vminpu=0.85 Vmaxpu=1.15 model=4 CVRwatts=0.8 CVRvars=3 class=1 xfkVA=8.28200210526316 NumCust=2 yearly=K21_A allocationfactor=1.21
New "Load.res_10571603-s-a" phases=1 bus1=ld_10571603.1 kV=0.24 kW=20.6582937 pf=0.97 status=variable Vminpu=0.85 Vmaxpu=1.15 model=4 CVRwatts=0.8 CVRvars=3 class=1 xfkVA=17.601 NumCust=2 yearly=K21_A allocationfactor=1.21
New "Load.res_10529606-s-a" phases=1 bus1=ld_10529606.1 kV=0.24 kW=10.8837126871579 pf=0.97 status=variable Vminpu=0.85 Vmaxpu=1.15 model=4 CVRwatts=0.8 CVRvars=3 class=1 xfkVA=9.27299368421053 NumCust=1 yearly=K21_A allocationfactor=1.21
New "Load.res_10529607-s-a" phases=1 bus1=ld_10529607.1 kV=0.24 kW=6.50141463631578 pf=0.97 status=variable Vminpu=0.85 Vmaxpu=1.15 model=4 CVRwatts=0.8 CVRvars=3 class=1 xfkVA=5.53924736842105 NumCust=2 yearly=K21_A allocationfactor=1.21
New "Load.res_10559391-s-a" phases=1 bus1=ld_10559391.1 kV=0.24 kW=10.4403172430526 pf=0.97 status=variable Vminpu=0.85 Vmaxpu=1.15 model=4 CVRwatts=0.8 CVRvars=3 class=1 xfkVA=8.89521789473684 NumCust=3 yearly=K21_A allocationfactor=1.21
New "Load.res_10529608-s-a" phases=1 bus1=ld_10529608.1 kV=0.24 kW=0.766994417894737 pf=0.97 status=variable Vminpu=0.85 Vmaxpu=1.15 model=4 CVRwatts=0.8 CVRvars=3 class=1 xfkVA=0.653484210526316 NumCust=1 yearly=K21_A allocationfactor=1.21
New "Load.res_34086310-s-a" phases=1 bus1=ld_34086310.1 kV=0.24 kW=10.3178546205263 pf=0.97 status=variable Vminpu=0.85 Vmaxpu=1.15 model=4 CVRwatts=0.8 CVRvars=3 class=1 xfkVA=8.79087894736842 NumCust=1 yearly=K21_A allocationfactor=1.21
New "Load.res_10559394-s-a" phases=1 bus1=ld_10559394.1 kV=0.24 kW=16.5241393031579 pf=0.97 status=variable Vminpu=0.85 Vmaxpu=1.15 model=4 CVRwatts=0.8 CVRvars=3 class=1 xfkVA=14.0786736842105 NumCust=1 yearly=K21_A allocationfactor=1.21
New "Load.res_10559385-s-a" phases=1 bus1=ld_10559385.1 kV=0.24 kW=8.76822839431579 pf=0.97 status=variable Vminpu=0.85 Vmaxpu=1.15 model=4 CVRwatts=0.8 CVRvars=3 class=1 xfkVA=7.47058736842105 NumCust=1 yearly=K21_A allocationfactor=1.21
New "Load.res_10559396-s-a" phases=1 bus1=ld_10559396.1 kV=0.24 kW=12.9018169442106 pf=0.97 status=variable Vminpu=0.85 Vmaxpu=1.15 model=4 CVRwatts=0.8 CVRvars=3 class=1 xfkVA=10.9924315789474 NumCust=2 yearly=K21_A allocationfactor=1.21
New "Load.res_10559386-s-a" phases=1 bus1=ld_10559386.1 kV=0.24 kW=21.6067544926316 pf=0.97 status=variable Vminpu=0.85 Vmaxpu=1.15 model=4 CVRwatts=0.8 CVRvars=3 class=1 xfkVA=18.4090947368421 NumCust=2 yearly=K21_A allocationfactor=1.21
New "Load.res_10559389-s-a" phases=1 bus1=ld_10559389.1 kV=0.24 kW=6.5303889651579 pf=0.97 status=variable Vminpu=0.85 Vmaxpu=1.15 model=4 CVRwatts=0.8 CVRvars=3 class=1 xfkVA=5.56393368421053 NumCust=1 yearly=K21_A allocationfactor=1.21
New "Load.res_10558547-s-c" phases=1 bus1=ld_10558547.3 kV=0.24 kW=26.5064952962105 pf=0.97 status=variable Vminpu=0.85 Vmaxpu=1.15 model=4 CVRwatts=0.8 CVRvars=3 class=1 xfkVA=22.5092947368421 NumCust=2 yearly=K21_C allocationfactor=1.214
New "Load.res_10532911-s-c" phases=1 bus1=ld_10532911.3 kV=0.24 kW=9.83110844082105 pf=0.97 status=variable Vminpu=0.85 Vmaxpu=1.15 model=4 CVRwatts=0.8 CVRvars=3 class=1 xfkVA=8.34856947368421 NumCust=1 yearly=K21_C allocationfactor=1.214
New "Load.res_34086802-s-c" phases=1 bus1=ld_34086802.3 kV=0.24 kW=6.48722872122105 pf=0.97 status=variable Vminpu=0.85 Vmaxpu=1.15 model=4 CVRwatts=0.8 CVRvars=3 class=1 xfkVA=5.50894947368421 NumCust=1 yearly=K21_C allocationfactor=1.214
New "Load.res_34086300-s-c" phases=1 bus1=ld_34086300.3 kV=0.24 kW=9.87460080867369 pf=0.97 status=variable Vminpu=0.85 Vmaxpu=1.15 model=4 CVRwatts=0.8 CVRvars=3 class=1 xfkVA=8.38550315789474 NumCust=2 yearly=K21_C allocationfactor=1.214
New "Load.res_10558523-s-b" phases=1 bus1=ld_10558523.2 kV=0.24 kW=0.428668227147369 pf=0.97 status=variable Vminpu=0.85 Vmaxpu=1.15 model=4 CVRwatts=0.8 CVRvars=3 class=1 xfkVA=0.363127368421053 NumCust=1 yearly=K21_B allocationfactor=1.217
New "Load.res_34086400-s-c" phases=1 bus1=ld_34086400.3 kV=0.24 kW=17.5023963311579 pf=0.97 status=variable Vminpu=0.85 Vmaxpu=1.15 model=4 CVRwatts=0.8 CVRvars=3 class=1 xfkVA=14.8630210526316 NumCust=2 yearly=K21_C allocationfactor=1.214
New "Load.res_10558573-s-c" phases=1 bus1=ld_10558573.3 kV=0.24 kW=29.4620723492631 pf=0.97 status=variable Vminpu=0.85 Vmaxpu=1.15 model=4 CVRwatts=0.8 CVRvars=3 class=1 xfkVA=25.0191684210526 NumCust=5 yearly=K21_C allocationfactor=1.214
New "Load.res_34086301-s-c" phases=1 bus1=ld_34086301.3 kV=0.24 kW=22.7540064726316 pf=0.97 status=variable Vminpu=0.85 Vmaxpu=1.15 model=4 CVRwatts=0.8 CVRvars=3 class=1 xfkVA=19.3226842105263 NumCust=2 yearly=K21_C allocationfactor=1.214
New "Load.res_34097398-s-c" phases=1 bus1=ld_34097398.3 kV=0.24 kW=14.7661962343158 pf=0.97 status=variable Vminpu=0.85 Vmaxpu=1.15 model=4 CVRwatts=0.8 CVRvars=3 class=1 xfkVA=12.5394421052632 NumCust=2 yearly=K21_C allocationfactor=1.214
New "Load.res_10574854-s-c" phases=1 bus1=ld_10574854.3 kV=0.24 kW=6.67267030094736 pf=0.97 status=variable Vminpu=0.85 Vmaxpu=1.15 model=4 CVRwatts=0.8 CVRvars=3 class=1 xfkVA=5.66642631578947 NumCust=2 yearly=K21_C allocationfactor=1.214
New "Load.res_34086303-s-c" phases=1 bus1=ld_34086303.3 kV=0.24 kW=8.35188450625263 pf=0.97 status=variable Vminpu=0.85 Vmaxpu=1.15 model=4 CVRwatts=0.8 CVRvars=3 class=1 xfkVA=7.09241368421053 NumCust=1 yearly=K21_C allocationfactor=1.214
New "Load.res_10558576-s-c" phases=1 bus1=ld_10558576.3 kV=0.24 kW=0.155919029347369 pf=0.97 status=variable Vminpu=0.85 Vmaxpu=1.15 model=4 CVRwatts=0.8 CVRvars=3 class=1 xfkVA=0.132406315789474 NumCust=1 yearly=K21_C allocationfactor=1.214
New "Load.res_20456673-s-c" phases=1 bus1=ld_20456673.3 kV=0.24 kW=15.2349598433684 pf=0.97 status=variable Vminpu=0.85 Vmaxpu=1.15 model=4 CVRwatts=0.8 CVRvars=3 class=1 xfkVA=12.9375157894737 NumCust=2 yearly=K21_C allocationfactor=1.214
New "Load.res_34086401-s-c" phases=1 bus1=ld_34086401.3 kV=0.24 kW=12.1410939929053 pf=0.97 status=variable Vminpu=0.85 Vmaxpu=1.15 model=4 CVRwatts=0.8 CVRvars=3 class=1 xfkVA=10.3102073684211 NumCust=1 yearly=K21_C allocationfactor=1.214
New "Load.res_10524061-s-c" phases=1 bus1=ld_10524061.3 kV=0.24 kW=0.769529936631579 pf=0.97 status=variable Vminpu=0.85 Vmaxpu=1.15 model=4 CVRwatts=0.8 CVRvars=3 class=1 xfkVA=0.653484210526316 NumCust=1 yearly=K21_C allocationfactor=1.214