New "Line.k22_feeder" bus1=k_lsb bus2=k22 phases=3 Switch=True length=0.001 units=ft enabled=true
