New "Transformer.t2" phases=3 windings=2 XHL=7.904196 buses=[trans_equiv.1.2.3, k_lsb.1.2.3.4, ] conns=[delta, wye, ] kVs=[66, 13.8, ] kVAs=[12000, 12000, ] taps=[1, 0.95625, ] buses=[trans_equiv.1.2.3, k_lsb.1.2.3.4, ] conns=[delta, wye, ] kVs=[66, 13.8, ] kVAs=[12000, 12000, ] taps=[1, 0.95625, ] wdg=1 %R=0.2500417 RdcOhms=0.7715036 wdg=2 %R=0.2500417 RdcOhms=0.01124312 RdcOhms=0.01124312 MinTap=0.9 MaxTap=1.1
