New "Line.sw_3" bus1=n_3.1.2.3 bus2=n_11.1.2.3 phases=3 Switch=True r1=0.0001 r0=0.0001 x1=0 x0=0 C1=0 C0=0
New "Line.sw_2" bus1=n_5.1.2.3 bus2=n_12.1.2.3 phases=3 Switch=True r1=0.0001 r0=0.0001 x1=0 x0=0 C1=0 C0=0
New "Line.006-pcc" bus1=n_6.1.2.3 bus2=pcc.1.2.3 length=1 phases=3 r1=0.0001 x1=0 r0=0.0001 x0=0 C1=0 C0=0
