New "Load.ld_3" bus1=n_4.1.2.3 phases=3 kV=0.4 kW=12500 pf=1 model=1 spectrum=spectrum_2
New "Load.ld_2" bus1=n_11.1.2.3 phases=3 kV=0.4 kW=12500 pf=1 model=1 spectrum=spectrum_2
New "Load.ld_linear" bus1=n_12.1.2.3 phases=3 kV=0.4 kW=25000 pf=1 model=1 spectrum=spectrum_1
