New "Load.aggregate_load" phases=3 bus1=ls_bus.1.2.3 kV=12.47 kW=5000 pf=-0.98 status=variable model=4 CVRwatts=0.8 CVRvars=3 class=1 NumCust=1 yearly=AggLoadProfile
