Clear
New Circuit.ckt5


Redirect LoadShape.DSS
Redirect Vsource.dss
Redirect WireData.dss
Redirect LineGeometry.dss
Redirect LineCode.dss
Redirect LoadShape.dss
Redirect GrowthShape.dss
Redirect TCC_Curve.dss
Redirect Spectrum.dss
Redirect sub\Branches.dss
Redirect sub\Transformers.dss
Redirect sub\Loads.dss
Redirect sub\Capacitors.dss
Redirect Transformer.dss
Redirect Reactor.dss
Redirect EnergyMeter.dss
MakeBusList
Redirect BusVoltageBases.dss  ! set voltage bases
Buscoords BusCoords.dss
GIScoords GISCoords.dss
