Clear
New Circuit.lvtest


Redirect Vsource.dss
Redirect LineCode.DSS
Redirect LoadShape.DSS
Redirect GrowthShape.DSS
Redirect TCC_Curve.DSS
Redirect Spectrum.DSS
Redirect m1\Branches.dss
Redirect m1\Loads.dss
Redirect Transformer.DSS
Redirect Monitor.DSS
Redirect EnergyMeter.DSS
MakeBusList
Redirect BusVoltageBases.dss  ! set voltage bases
Buscoords buscoords.dss
