New "Transformer.tr1" buses=[sourcebus, 1, ] conns=[delta, wye, ] kVs=[11, 0.416, ] kVAs=[800, 800, ] Xhl=4 sub=y
